/*---------------------------------------------------------------------------*\
| =========                 |                                                 |
| \\      /  F ield         | OpenFOAM: The Open Source CFD Toolbox           |
|  \\    /   O peration     | Version:  2406                                  |
|   \\  /    A nd           | Website:  www.openfoam.com                      |
|    \\/     M anipulation  |                                                 |
\*---------------------------------------------------------------------------*/
Build  : _9bfe8264-20241212 OPENFOAM=2406 patch=241212 version=2406
Arch   : "LSB;label=32;scalar=64"
Exec   : /home/tanuj/OpenFOAM/tanuj-v2406/platforms/linux64GccDPInt32Opt/bin/svdToFoam -fieldName U -svdRank 20 -FOName dataToSmartRedis -parallel
Date   : Jan 14 2026
Time   : 17:10:42
Host   : A380
PID    : 6911
I/O    : uncollated
Case   : /home/tanuj/Masters_Thesis/AFC_using_DRL_DMDc/dmdc/evaluation/makeFields/run/cylinder/Random_walk/DRL_signal
nProcs : 2
Hosts  :
(
    (A380 2)
)
Pstream initialized with:
    floatTransfer      : false
    maxCommsSize       : 0
    nProcsSimpleSum    : 0
    nonBlockingExchange: 0 (tuning: 0)
    exchange algorithm : 0
    commsType          : nonBlocking
    polling iterations : 0
trapFpe: Floating point exception trapping enabled (FOAM_SIGFPE).
fileModificationChecking : Monitoring run-time modified files using timeStampMaster (fileModificationSkew 5, maxFileModificationPolls 20)
allowSystemOperations : Allowing user-supplied system call operations

// * * * * * * * * * * * * * * * * * * * * * * * * * * * * * * * * * * * * * //
Create time

Create mesh for time = 3.99

Transferring reconstruction with rank 20 of field U originally written by function object dataToSmartRedis
SmartRedis Library@17-10-42:WARNING: Environment variable SR_LOG_FILE is not set. Defaulting to stdout
SmartRedis Library@17-10-42:WARNING: Environment variable SR_LOG_LEVEL is not set. Defaulting to INFO
SmartRedis Library@17-10-42:WARNING: Environment variable SR_LOG_FILE is not set. Defaulting to stdout
SmartRedis Library@17-10-42:WARNING: Environment variable SR_LOG_LEVEL is not set. Defaulting to INFO
current time3.99
current time index0
Writing reconstruction at time 4
tensorName "rec_ensemble_r20_field_name_U_0.rank_20_field_name_U_mpi_rank_0_time_index_20"
fieldName U
Writing reconstruction at time 4.01
tensorName "rec_ensemble_r20_field_name_U_0.rank_20_field_name_U_mpi_rank_0_time_index_40"
fieldName U
Writing reconstruction at time 4.02
tensorName "rec_ensemble_r20_field_name_U_0.rank_20_field_name_U_mpi_rank_0_time_index_60"
fieldName U
Writing reconstruction at time 4.03
tensorName "rec_ensemble_r20_field_name_U_0.rank_20_field_name_U_mpi_rank_0_time_index_80"
fieldName U
Writing reconstruction at time 4.04
tensorName "rec_ensemble_r20_field_name_U_0.rank_20_field_name_U_mpi_rank_0_time_index_100"
fieldName U
Writing reconstruction at time 4.05
tensorName "rec_ensemble_r20_field_name_U_0.rank_20_field_name_U_mpi_rank_0_time_index_120"
fieldName U
Writing reconstruction at time 4.06
tensorName "rec_ensemble_r20_field_name_U_0.rank_20_field_name_U_mpi_rank_0_time_index_140"
fieldName U
Writing reconstruction at time 4.07
tensorName "rec_ensemble_r20_field_name_U_0.rank_20_field_name_U_mpi_rank_0_time_index_160"
fieldName U
Writing reconstruction at time 4.08
tensorName "rec_ensemble_r20_field_name_U_0.rank_20_field_name_U_mpi_rank_0_time_index_180"
fieldName U
Writing reconstruction at time 4.09
tensorName "rec_ensemble_r20_field_name_U_0.rank_20_field_name_U_mpi_rank_0_time_index_200"
fieldName U
Writing reconstruction at time 4.1
tensorName "rec_ensemble_r20_field_name_U_0.rank_20_field_name_U_mpi_rank_0_time_index_220"
fieldName U
Writing reconstruction at time 4.11
tensorName "rec_ensemble_r20_field_name_U_0.rank_20_field_name_U_mpi_rank_0_time_index_240"
fieldName U
Writing reconstruction at time 4.12
tensorName "rec_ensemble_r20_field_name_U_0.rank_20_field_name_U_mpi_rank_0_time_index_260"
fieldName U
Writing reconstruction at time 4.13
tensorName "rec_ensemble_r20_field_name_U_0.rank_20_field_name_U_mpi_rank_0_time_index_280"
fieldName U
Writing reconstruction at time 4.14
tensorName "rec_ensemble_r20_field_name_U_0.rank_20_field_name_U_mpi_rank_0_time_index_300"
fieldName U
Writing reconstruction at time 4.15
tensorName "rec_ensemble_r20_field_name_U_0.rank_20_field_name_U_mpi_rank_0_time_index_320"
fieldName U
Writing reconstruction at time 4.16
tensorName "rec_ensemble_r20_field_name_U_0.rank_20_field_name_U_mpi_rank_0_time_index_340"
fieldName U
Writing reconstruction at time 4.17
tensorName "rec_ensemble_r20_field_name_U_0.rank_20_field_name_U_mpi_rank_0_time_index_360"
fieldName U
Writing reconstruction at time 4.18
tensorName "rec_ensemble_r20_field_name_U_0.rank_20_field_name_U_mpi_rank_0_time_index_380"
fieldName U
Writing reconstruction at time 4.19
tensorName "rec_ensemble_r20_field_name_U_0.rank_20_field_name_U_mpi_rank_0_time_index_400"
fieldName U
Writing reconstruction at time 4.2
tensorName "rec_ensemble_r20_field_name_U_0.rank_20_field_name_U_mpi_rank_0_time_index_420"
fieldName U
Writing reconstruction at time 4.21
tensorName "rec_ensemble_r20_field_name_U_0.rank_20_field_name_U_mpi_rank_0_time_index_440"
fieldName U
Writing reconstruction at time 4.22
tensorName "rec_ensemble_r20_field_name_U_0.rank_20_field_name_U_mpi_rank_0_time_index_460"
fieldName U
Writing reconstruction at time 4.23
tensorName "rec_ensemble_r20_field_name_U_0.rank_20_field_name_U_mpi_rank_0_time_index_480"
fieldName U
Writing reconstruction at time 4.24
tensorName "rec_ensemble_r20_field_name_U_0.rank_20_field_name_U_mpi_rank_0_time_index_500"
fieldName U
Writing reconstruction at time 4.25
tensorName "rec_ensemble_r20_field_name_U_0.rank_20_field_name_U_mpi_rank_0_time_index_520"
fieldName U
Writing reconstruction at time 4.26
tensorName "rec_ensemble_r20_field_name_U_0.rank_20_field_name_U_mpi_rank_0_time_index_540"
fieldName U
Writing reconstruction at time 4.27
tensorName "rec_ensemble_r20_field_name_U_0.rank_20_field_name_U_mpi_rank_0_time_index_560"
fieldName U
Writing reconstruction at time 4.28
tensorName "rec_ensemble_r20_field_name_U_0.rank_20_field_name_U_mpi_rank_0_time_index_580"
fieldName U
Writing reconstruction at time 4.29
tensorName "rec_ensemble_r20_field_name_U_0.rank_20_field_name_U_mpi_rank_0_time_index_600"
fieldName U
Writing reconstruction at time 4.3
tensorName "rec_ensemble_r20_field_name_U_0.rank_20_field_name_U_mpi_rank_0_time_index_620"
fieldName U
Writing reconstruction at time 4.31
tensorName "rec_ensemble_r20_field_name_U_0.rank_20_field_name_U_mpi_rank_0_time_index_640"
fieldName U
Writing reconstruction at time 4.32
tensorName "rec_ensemble_r20_field_name_U_0.rank_20_field_name_U_mpi_rank_0_time_index_660"
fieldName U
Writing reconstruction at time 4.33
tensorName "rec_ensemble_r20_field_name_U_0.rank_20_field_name_U_mpi_rank_0_time_index_680"
fieldName U
Writing reconstruction at time 4.34
tensorName "rec_ensemble_r20_field_name_U_0.rank_20_field_name_U_mpi_rank_0_time_index_700"
fieldName U
Writing reconstruction at time 4.35
tensorName "rec_ensemble_r20_field_name_U_0.rank_20_field_name_U_mpi_rank_0_time_index_720"
fieldName U
Writing reconstruction at time 4.36
tensorName "rec_ensemble_r20_field_name_U_0.rank_20_field_name_U_mpi_rank_0_time_index_740"
fieldName U
Writing reconstruction at time 4.37
tensorName "rec_ensemble_r20_field_name_U_0.rank_20_field_name_U_mpi_rank_0_time_index_760"
fieldName U
Writing reconstruction at time 4.38
tensorName "rec_ensemble_r20_field_name_U_0.rank_20_field_name_U_mpi_rank_0_time_index_780"
fieldName U
Writing reconstruction at time 4.39
tensorName "rec_ensemble_r20_field_name_U_0.rank_20_field_name_U_mpi_rank_0_time_index_800"
fieldName U
Writing reconstruction at time 4.4
tensorName "rec_ensemble_r20_field_name_U_0.rank_20_field_name_U_mpi_rank_0_time_index_820"
fieldName U
Writing reconstruction at time 4.41
tensorName "rec_ensemble_r20_field_name_U_0.rank_20_field_name_U_mpi_rank_0_time_index_840"
fieldName U
Writing reconstruction at time 4.42
tensorName "rec_ensemble_r20_field_name_U_0.rank_20_field_name_U_mpi_rank_0_time_index_860"
fieldName U
Writing reconstruction at time 4.43
tensorName "rec_ensemble_r20_field_name_U_0.rank_20_field_name_U_mpi_rank_0_time_index_880"
fieldName U
Writing reconstruction at time 4.44
tensorName "rec_ensemble_r20_field_name_U_0.rank_20_field_name_U_mpi_rank_0_time_index_900"
fieldName U
Writing reconstruction at time 4.45
tensorName "rec_ensemble_r20_field_name_U_0.rank_20_field_name_U_mpi_rank_0_time_index_920"
fieldName U
Writing reconstruction at time 4.46
tensorName "rec_ensemble_r20_field_name_U_0.rank_20_field_name_U_mpi_rank_0_time_index_940"
fieldName U
Writing reconstruction at time 4.47
tensorName "rec_ensemble_r20_field_name_U_0.rank_20_field_name_U_mpi_rank_0_time_index_960"
fieldName U
Writing reconstruction at time 4.48
tensorName "rec_ensemble_r20_field_name_U_0.rank_20_field_name_U_mpi_rank_0_time_index_980"
fieldName U
Writing reconstruction at time 4.49
tensorName "rec_ensemble_r20_field_name_U_0.rank_20_field_name_U_mpi_rank_0_time_index_1000"
fieldName U
Writing reconstruction at time 4.5
tensorName "rec_ensemble_r20_field_name_U_0.rank_20_field_name_U_mpi_rank_0_time_index_1020"
fieldName U
Writing reconstruction at time 4.51
tensorName "rec_ensemble_r20_field_name_U_0.rank_20_field_name_U_mpi_rank_0_time_index_1040"
fieldName U
Writing reconstruction at time 4.52
tensorName "rec_ensemble_r20_field_name_U_0.rank_20_field_name_U_mpi_rank_0_time_index_1060"
fieldName U
Writing reconstruction at time 4.53
tensorName "rec_ensemble_r20_field_name_U_0.rank_20_field_name_U_mpi_rank_0_time_index_1080"
fieldName U
Writing reconstruction at time 4.54
tensorName "rec_ensemble_r20_field_name_U_0.rank_20_field_name_U_mpi_rank_0_time_index_1100"
fieldName U
Writing reconstruction at time 4.55
tensorName "rec_ensemble_r20_field_name_U_0.rank_20_field_name_U_mpi_rank_0_time_index_1120"
fieldName U
Writing reconstruction at time 4.56
tensorName "rec_ensemble_r20_field_name_U_0.rank_20_field_name_U_mpi_rank_0_time_index_1140"
fieldName U
Writing reconstruction at time 4.57
tensorName "rec_ensemble_r20_field_name_U_0.rank_20_field_name_U_mpi_rank_0_time_index_1160"
fieldName U
Writing reconstruction at time 4.58
tensorName "rec_ensemble_r20_field_name_U_0.rank_20_field_name_U_mpi_rank_0_time_index_1180"
fieldName U
Writing reconstruction at time 4.59
tensorName "rec_ensemble_r20_field_name_U_0.rank_20_field_name_U_mpi_rank_0_time_index_1200"
fieldName U
Writing reconstruction at time 4.6
tensorName "rec_ensemble_r20_field_name_U_0.rank_20_field_name_U_mpi_rank_0_time_index_1220"
fieldName U
Writing reconstruction at time 4.61
tensorName "rec_ensemble_r20_field_name_U_0.rank_20_field_name_U_mpi_rank_0_time_index_1240"
fieldName U
Writing reconstruction at time 4.62
tensorName "rec_ensemble_r20_field_name_U_0.rank_20_field_name_U_mpi_rank_0_time_index_1260"
fieldName U
Writing reconstruction at time 4.63
tensorName "rec_ensemble_r20_field_name_U_0.rank_20_field_name_U_mpi_rank_0_time_index_1280"
fieldName U
Writing reconstruction at time 4.64
tensorName "rec_ensemble_r20_field_name_U_0.rank_20_field_name_U_mpi_rank_0_time_index_1300"
fieldName U
Writing reconstruction at time 4.65
tensorName "rec_ensemble_r20_field_name_U_0.rank_20_field_name_U_mpi_rank_0_time_index_1320"
fieldName U
Writing reconstruction at time 4.66
tensorName "rec_ensemble_r20_field_name_U_0.rank_20_field_name_U_mpi_rank_0_time_index_1340"
fieldName U
Writing reconstruction at time 4.67
tensorName "rec_ensemble_r20_field_name_U_0.rank_20_field_name_U_mpi_rank_0_time_index_1360"
fieldName U
Writing reconstruction at time 4.68
tensorName "rec_ensemble_r20_field_name_U_0.rank_20_field_name_U_mpi_rank_0_time_index_1380"
fieldName U
Writing reconstruction at time 4.69
tensorName "rec_ensemble_r20_field_name_U_0.rank_20_field_name_U_mpi_rank_0_time_index_1400"
fieldName U
Writing reconstruction at time 4.7
tensorName "rec_ensemble_r20_field_name_U_0.rank_20_field_name_U_mpi_rank_0_time_index_1420"
fieldName U
Writing reconstruction at time 4.71
tensorName "rec_ensemble_r20_field_name_U_0.rank_20_field_name_U_mpi_rank_0_time_index_1440"
fieldName U
Writing reconstruction at time 4.72
tensorName "rec_ensemble_r20_field_name_U_0.rank_20_field_name_U_mpi_rank_0_time_index_1460"
fieldName U
Writing reconstruction at time 4.73
tensorName "rec_ensemble_r20_field_name_U_0.rank_20_field_name_U_mpi_rank_0_time_index_1480"
fieldName U
Writing reconstruction at time 4.74
tensorName "rec_ensemble_r20_field_name_U_0.rank_20_field_name_U_mpi_rank_0_time_index_1500"
fieldName U
Writing reconstruction at time 4.75
tensorName "rec_ensemble_r20_field_name_U_0.rank_20_field_name_U_mpi_rank_0_time_index_1520"
fieldName U
Writing reconstruction at time 4.76
tensorName "rec_ensemble_r20_field_name_U_0.rank_20_field_name_U_mpi_rank_0_time_index_1540"
fieldName U
Writing reconstruction at time 4.77
tensorName "rec_ensemble_r20_field_name_U_0.rank_20_field_name_U_mpi_rank_0_time_index_1560"
fieldName U
Writing reconstruction at time 4.78
tensorName "rec_ensemble_r20_field_name_U_0.rank_20_field_name_U_mpi_rank_0_time_index_1580"
fieldName U
Writing reconstruction at time 4.79
tensorName "rec_ensemble_r20_field_name_U_0.rank_20_field_name_U_mpi_rank_0_time_index_1600"
fieldName U
Writing reconstruction at time 4.8
tensorName "rec_ensemble_r20_field_name_U_0.rank_20_field_name_U_mpi_rank_0_time_index_1620"
fieldName U
Writing reconstruction at time 4.81
tensorName "rec_ensemble_r20_field_name_U_0.rank_20_field_name_U_mpi_rank_0_time_index_1640"
fieldName U
Writing reconstruction at time 4.82
tensorName "rec_ensemble_r20_field_name_U_0.rank_20_field_name_U_mpi_rank_0_time_index_1660"
fieldName U
Writing reconstruction at time 4.83
tensorName "rec_ensemble_r20_field_name_U_0.rank_20_field_name_U_mpi_rank_0_time_index_1680"
fieldName U
Writing reconstruction at time 4.84
tensorName "rec_ensemble_r20_field_name_U_0.rank_20_field_name_U_mpi_rank_0_time_index_1700"
fieldName U
Writing reconstruction at time 4.85
tensorName "rec_ensemble_r20_field_name_U_0.rank_20_field_name_U_mpi_rank_0_time_index_1720"
fieldName U
Writing reconstruction at time 4.86
tensorName "rec_ensemble_r20_field_name_U_0.rank_20_field_name_U_mpi_rank_0_time_index_1740"
fieldName U
Writing reconstruction at time 4.87
tensorName "rec_ensemble_r20_field_name_U_0.rank_20_field_name_U_mpi_rank_0_time_index_1760"
fieldName U
Writing reconstruction at time 4.88
tensorName "rec_ensemble_r20_field_name_U_0.rank_20_field_name_U_mpi_rank_0_time_index_1780"
fieldName U
Writing reconstruction at time 4.89
tensorName "rec_ensemble_r20_field_name_U_0.rank_20_field_name_U_mpi_rank_0_time_index_1800"
fieldName U
Writing reconstruction at time 4.9
tensorName "rec_ensemble_r20_field_name_U_0.rank_20_field_name_U_mpi_rank_0_time_index_1820"
fieldName U
Writing reconstruction at time 4.91
tensorName "rec_ensemble_r20_field_name_U_0.rank_20_field_name_U_mpi_rank_0_time_index_1840"
fieldName U
Writing reconstruction at time 4.92
tensorName "rec_ensemble_r20_field_name_U_0.rank_20_field_name_U_mpi_rank_0_time_index_1860"
fieldName U
Writing reconstruction at time 4.93
tensorName "rec_ensemble_r20_field_name_U_0.rank_20_field_name_U_mpi_rank_0_time_index_1880"
fieldName U
Writing reconstruction at time 4.94
tensorName "rec_ensemble_r20_field_name_U_0.rank_20_field_name_U_mpi_rank_0_time_index_1900"
fieldName U
Writing reconstruction at time 4.95
tensorName "rec_ensemble_r20_field_name_U_0.rank_20_field_name_U_mpi_rank_0_time_index_1920"
fieldName U
Writing reconstruction at time 4.96
tensorName "rec_ensemble_r20_field_name_U_0.rank_20_field_name_U_mpi_rank_0_time_index_1940"
fieldName U
Writing reconstruction at time 4.97
tensorName "rec_ensemble_r20_field_name_U_0.rank_20_field_name_U_mpi_rank_0_time_index_1960"
fieldName U
Writing reconstruction at time 4.98
tensorName "rec_ensemble_r20_field_name_U_0.rank_20_field_name_U_mpi_rank_0_time_index_1980"
fieldName U
Writing reconstruction at time 4.99
tensorName "rec_ensemble_r20_field_name_U_0.rank_20_field_name_U_mpi_rank_0_time_index_2000"
fieldName U
Writing reconstruction at time 5
tensorName "rec_ensemble_r20_field_name_U_0.rank_20_field_name_U_mpi_rank_0_time_index_2020"
fieldName U
Writing reconstruction at time 5.01
tensorName "rec_ensemble_r20_field_name_U_0.rank_20_field_name_U_mpi_rank_0_time_index_2040"
fieldName U
Writing reconstruction at time 5.02
tensorName "rec_ensemble_r20_field_name_U_0.rank_20_field_name_U_mpi_rank_0_time_index_2060"
fieldName U
Writing reconstruction at time 5.03
tensorName "rec_ensemble_r20_field_name_U_0.rank_20_field_name_U_mpi_rank_0_time_index_2080"
fieldName U
Writing reconstruction at time 5.04
tensorName "rec_ensemble_r20_field_name_U_0.rank_20_field_name_U_mpi_rank_0_time_index_2100"
fieldName U
Writing reconstruction at time 5.05
tensorName "rec_ensemble_r20_field_name_U_0.rank_20_field_name_U_mpi_rank_0_time_index_2120"
fieldName U
Writing reconstruction at time 5.06
tensorName "rec_ensemble_r20_field_name_U_0.rank_20_field_name_U_mpi_rank_0_time_index_2140"
fieldName U
Writing reconstruction at time 5.07
tensorName "rec_ensemble_r20_field_name_U_0.rank_20_field_name_U_mpi_rank_0_time_index_2160"
fieldName U
Writing reconstruction at time 5.08
tensorName "rec_ensemble_r20_field_name_U_0.rank_20_field_name_U_mpi_rank_0_time_index_2180"
fieldName U
Writing reconstruction at time 5.09
tensorName "rec_ensemble_r20_field_name_U_0.rank_20_field_name_U_mpi_rank_0_time_index_2200"
fieldName U
Writing reconstruction at time 5.1
tensorName "rec_ensemble_r20_field_name_U_0.rank_20_field_name_U_mpi_rank_0_time_index_2220"
fieldName U
Writing reconstruction at time 5.11
tensorName "rec_ensemble_r20_field_name_U_0.rank_20_field_name_U_mpi_rank_0_time_index_2240"
fieldName U
Writing reconstruction at time 5.12
tensorName "rec_ensemble_r20_field_name_U_0.rank_20_field_name_U_mpi_rank_0_time_index_2260"
fieldName U
Writing reconstruction at time 5.13
tensorName "rec_ensemble_r20_field_name_U_0.rank_20_field_name_U_mpi_rank_0_time_index_2280"
fieldName U
Writing reconstruction at time 5.14
tensorName "rec_ensemble_r20_field_name_U_0.rank_20_field_name_U_mpi_rank_0_time_index_2300"
fieldName U
Writing reconstruction at time 5.15
tensorName "rec_ensemble_r20_field_name_U_0.rank_20_field_name_U_mpi_rank_0_time_index_2320"
fieldName U
Writing reconstruction at time 5.16
tensorName "rec_ensemble_r20_field_name_U_0.rank_20_field_name_U_mpi_rank_0_time_index_2340"
fieldName U
Writing reconstruction at time 5.17
tensorName "rec_ensemble_r20_field_name_U_0.rank_20_field_name_U_mpi_rank_0_time_index_2360"
fieldName U
Writing reconstruction at time 5.18
tensorName "rec_ensemble_r20_field_name_U_0.rank_20_field_name_U_mpi_rank_0_time_index_2380"
fieldName U
Writing reconstruction at time 5.19
tensorName "rec_ensemble_r20_field_name_U_0.rank_20_field_name_U_mpi_rank_0_time_index_2400"
fieldName U
Writing reconstruction at time 5.2
tensorName "rec_ensemble_r20_field_name_U_0.rank_20_field_name_U_mpi_rank_0_time_index_2420"
fieldName U
Writing reconstruction at time 5.21
tensorName "rec_ensemble_r20_field_name_U_0.rank_20_field_name_U_mpi_rank_0_time_index_2440"
fieldName U
Writing reconstruction at time 5.22
tensorName "rec_ensemble_r20_field_name_U_0.rank_20_field_name_U_mpi_rank_0_time_index_2460"
fieldName U
Writing reconstruction at time 5.23
tensorName "rec_ensemble_r20_field_name_U_0.rank_20_field_name_U_mpi_rank_0_time_index_2480"
fieldName U
Writing reconstruction at time 5.24
tensorName "rec_ensemble_r20_field_name_U_0.rank_20_field_name_U_mpi_rank_0_time_index_2500"
fieldName U
Writing reconstruction at time 5.25
tensorName "rec_ensemble_r20_field_name_U_0.rank_20_field_name_U_mpi_rank_0_time_index_2520"
fieldName U
Writing reconstruction at time 5.26
tensorName "rec_ensemble_r20_field_name_U_0.rank_20_field_name_U_mpi_rank_0_time_index_2540"
fieldName U
Writing reconstruction at time 5.27
tensorName "rec_ensemble_r20_field_name_U_0.rank_20_field_name_U_mpi_rank_0_time_index_2560"
fieldName U
Writing reconstruction at time 5.28
tensorName "rec_ensemble_r20_field_name_U_0.rank_20_field_name_U_mpi_rank_0_time_index_2580"
fieldName U
Writing reconstruction at time 5.29
tensorName "rec_ensemble_r20_field_name_U_0.rank_20_field_name_U_mpi_rank_0_time_index_2600"
fieldName U
Writing reconstruction at time 5.3
tensorName "rec_ensemble_r20_field_name_U_0.rank_20_field_name_U_mpi_rank_0_time_index_2620"
fieldName U
Writing reconstruction at time 5.31
tensorName "rec_ensemble_r20_field_name_U_0.rank_20_field_name_U_mpi_rank_0_time_index_2640"
fieldName U
Writing reconstruction at time 5.32
tensorName "rec_ensemble_r20_field_name_U_0.rank_20_field_name_U_mpi_rank_0_time_index_2660"
fieldName U
Writing reconstruction at time 5.33
tensorName "rec_ensemble_r20_field_name_U_0.rank_20_field_name_U_mpi_rank_0_time_index_2680"
fieldName U
Writing reconstruction at time 5.34
tensorName "rec_ensemble_r20_field_name_U_0.rank_20_field_name_U_mpi_rank_0_time_index_2700"
fieldName U
Writing reconstruction at time 5.35
tensorName "rec_ensemble_r20_field_name_U_0.rank_20_field_name_U_mpi_rank_0_time_index_2720"
fieldName U
Writing reconstruction at time 5.36
tensorName "rec_ensemble_r20_field_name_U_0.rank_20_field_name_U_mpi_rank_0_time_index_2740"
fieldName U
Writing reconstruction at time 5.37
tensorName "rec_ensemble_r20_field_name_U_0.rank_20_field_name_U_mpi_rank_0_time_index_2760"
fieldName U
Writing reconstruction at time 5.38
tensorName "rec_ensemble_r20_field_name_U_0.rank_20_field_name_U_mpi_rank_0_time_index_2780"
fieldName U
Writing reconstruction at time 5.39
tensorName "rec_ensemble_r20_field_name_U_0.rank_20_field_name_U_mpi_rank_0_time_index_2800"
fieldName U
Writing reconstruction at time 5.4
tensorName "rec_ensemble_r20_field_name_U_0.rank_20_field_name_U_mpi_rank_0_time_index_2820"
fieldName U
Writing reconstruction at time 5.41
tensorName "rec_ensemble_r20_field_name_U_0.rank_20_field_name_U_mpi_rank_0_time_index_2840"
fieldName U
Writing reconstruction at time 5.42
tensorName "rec_ensemble_r20_field_name_U_0.rank_20_field_name_U_mpi_rank_0_time_index_2860"
fieldName U
Writing reconstruction at time 5.43
tensorName "rec_ensemble_r20_field_name_U_0.rank_20_field_name_U_mpi_rank_0_time_index_2880"
fieldName U
Writing reconstruction at time 5.44
tensorName "rec_ensemble_r20_field_name_U_0.rank_20_field_name_U_mpi_rank_0_time_index_2900"
fieldName U
Writing reconstruction at time 5.45
tensorName "rec_ensemble_r20_field_name_U_0.rank_20_field_name_U_mpi_rank_0_time_index_2920"
fieldName U
Writing reconstruction at time 5.46
tensorName "rec_ensemble_r20_field_name_U_0.rank_20_field_name_U_mpi_rank_0_time_index_2940"
fieldName U
Writing reconstruction at time 5.47
tensorName "rec_ensemble_r20_field_name_U_0.rank_20_field_name_U_mpi_rank_0_time_index_2960"
fieldName U
Writing reconstruction at time 5.48
tensorName "rec_ensemble_r20_field_name_U_0.rank_20_field_name_U_mpi_rank_0_time_index_2980"
fieldName U
Writing reconstruction at time 5.49
tensorName "rec_ensemble_r20_field_name_U_0.rank_20_field_name_U_mpi_rank_0_time_index_3000"
fieldName U
Writing reconstruction at time 5.5
tensorName "rec_ensemble_r20_field_name_U_0.rank_20_field_name_U_mpi_rank_0_time_index_3020"
fieldName U
Writing reconstruction at time 5.51
tensorName "rec_ensemble_r20_field_name_U_0.rank_20_field_name_U_mpi_rank_0_time_index_3040"
fieldName U
Writing reconstruction at time 5.52
tensorName "rec_ensemble_r20_field_name_U_0.rank_20_field_name_U_mpi_rank_0_time_index_3060"
fieldName U
Writing reconstruction at time 5.53
tensorName "rec_ensemble_r20_field_name_U_0.rank_20_field_name_U_mpi_rank_0_time_index_3080"
fieldName U
Writing reconstruction at time 5.54
tensorName "rec_ensemble_r20_field_name_U_0.rank_20_field_name_U_mpi_rank_0_time_index_3100"
fieldName U
Writing reconstruction at time 5.55
tensorName "rec_ensemble_r20_field_name_U_0.rank_20_field_name_U_mpi_rank_0_time_index_3120"
fieldName U
Writing reconstruction at time 5.56
tensorName "rec_ensemble_r20_field_name_U_0.rank_20_field_name_U_mpi_rank_0_time_index_3140"
fieldName U
Writing reconstruction at time 5.57
tensorName "rec_ensemble_r20_field_name_U_0.rank_20_field_name_U_mpi_rank_0_time_index_3160"
fieldName U
Writing reconstruction at time 5.58
tensorName "rec_ensemble_r20_field_name_U_0.rank_20_field_name_U_mpi_rank_0_time_index_3180"
fieldName U
Writing reconstruction at time 5.59
tensorName "rec_ensemble_r20_field_name_U_0.rank_20_field_name_U_mpi_rank_0_time_index_3200"
fieldName U
Writing reconstruction at time 5.6
tensorName "rec_ensemble_r20_field_name_U_0.rank_20_field_name_U_mpi_rank_0_time_index_3220"
fieldName U
Writing reconstruction at time 5.61
tensorName "rec_ensemble_r20_field_name_U_0.rank_20_field_name_U_mpi_rank_0_time_index_3240"
fieldName U
Writing reconstruction at time 5.62
tensorName "rec_ensemble_r20_field_name_U_0.rank_20_field_name_U_mpi_rank_0_time_index_3260"
fieldName U
Writing reconstruction at time 5.63
tensorName "rec_ensemble_r20_field_name_U_0.rank_20_field_name_U_mpi_rank_0_time_index_3280"
fieldName U
Writing reconstruction at time 5.64
tensorName "rec_ensemble_r20_field_name_U_0.rank_20_field_name_U_mpi_rank_0_time_index_3300"
fieldName U
Writing reconstruction at time 5.65
tensorName "rec_ensemble_r20_field_name_U_0.rank_20_field_name_U_mpi_rank_0_time_index_3320"
fieldName U
Writing reconstruction at time 5.66
tensorName "rec_ensemble_r20_field_name_U_0.rank_20_field_name_U_mpi_rank_0_time_index_3340"
fieldName U
Writing reconstruction at time 5.67
tensorName "rec_ensemble_r20_field_name_U_0.rank_20_field_name_U_mpi_rank_0_time_index_3360"
fieldName U
Writing reconstruction at time 5.68
tensorName "rec_ensemble_r20_field_name_U_0.rank_20_field_name_U_mpi_rank_0_time_index_3380"
fieldName U
Writing reconstruction at time 5.69
tensorName "rec_ensemble_r20_field_name_U_0.rank_20_field_name_U_mpi_rank_0_time_index_3400"
fieldName U
Writing reconstruction at time 5.7
tensorName "rec_ensemble_r20_field_name_U_0.rank_20_field_name_U_mpi_rank_0_time_index_3420"
fieldName U
Writing reconstruction at time 5.71
tensorName "rec_ensemble_r20_field_name_U_0.rank_20_field_name_U_mpi_rank_0_time_index_3440"
fieldName U
Writing reconstruction at time 5.72
tensorName "rec_ensemble_r20_field_name_U_0.rank_20_field_name_U_mpi_rank_0_time_index_3460"
fieldName U
Writing reconstruction at time 5.73
tensorName "rec_ensemble_r20_field_name_U_0.rank_20_field_name_U_mpi_rank_0_time_index_3480"
fieldName U
Writing reconstruction at time 5.74
tensorName "rec_ensemble_r20_field_name_U_0.rank_20_field_name_U_mpi_rank_0_time_index_3500"
fieldName U
Writing reconstruction at time 5.75
tensorName "rec_ensemble_r20_field_name_U_0.rank_20_field_name_U_mpi_rank_0_time_index_3520"
fieldName U
Writing reconstruction at time 5.76
tensorName "rec_ensemble_r20_field_name_U_0.rank_20_field_name_U_mpi_rank_0_time_index_3540"
fieldName U
Writing reconstruction at time 5.77
tensorName "rec_ensemble_r20_field_name_U_0.rank_20_field_name_U_mpi_rank_0_time_index_3560"
fieldName U
Writing reconstruction at time 5.78
tensorName "rec_ensemble_r20_field_name_U_0.rank_20_field_name_U_mpi_rank_0_time_index_3580"
fieldName U
Writing reconstruction at time 5.79
tensorName "rec_ensemble_r20_field_name_U_0.rank_20_field_name_U_mpi_rank_0_time_index_3600"
fieldName U
Writing reconstruction at time 5.8
tensorName "rec_ensemble_r20_field_name_U_0.rank_20_field_name_U_mpi_rank_0_time_index_3620"
fieldName U
Writing reconstruction at time 5.81
tensorName "rec_ensemble_r20_field_name_U_0.rank_20_field_name_U_mpi_rank_0_time_index_3640"
fieldName U
Writing reconstruction at time 5.82
tensorName "rec_ensemble_r20_field_name_U_0.rank_20_field_name_U_mpi_rank_0_time_index_3660"
fieldName U
Writing reconstruction at time 5.83
tensorName "rec_ensemble_r20_field_name_U_0.rank_20_field_name_U_mpi_rank_0_time_index_3680"
fieldName U
Writing reconstruction at time 5.84
tensorName "rec_ensemble_r20_field_name_U_0.rank_20_field_name_U_mpi_rank_0_time_index_3700"
fieldName U
Writing reconstruction at time 5.85
tensorName "rec_ensemble_r20_field_name_U_0.rank_20_field_name_U_mpi_rank_0_time_index_3720"
fieldName U
Writing reconstruction at time 5.86
tensorName "rec_ensemble_r20_field_name_U_0.rank_20_field_name_U_mpi_rank_0_time_index_3740"
fieldName U
Writing reconstruction at time 5.87
tensorName "rec_ensemble_r20_field_name_U_0.rank_20_field_name_U_mpi_rank_0_time_index_3760"
fieldName U
Writing reconstruction at time 5.88
tensorName "rec_ensemble_r20_field_name_U_0.rank_20_field_name_U_mpi_rank_0_time_index_3780"
fieldName U
Writing reconstruction at time 5.89
tensorName "rec_ensemble_r20_field_name_U_0.rank_20_field_name_U_mpi_rank_0_time_index_3800"
fieldName U
Writing reconstruction at time 5.9
tensorName "rec_ensemble_r20_field_name_U_0.rank_20_field_name_U_mpi_rank_0_time_index_3820"
fieldName U
Writing reconstruction at time 5.91
tensorName "rec_ensemble_r20_field_name_U_0.rank_20_field_name_U_mpi_rank_0_time_index_3840"
fieldName U
Writing reconstruction at time 5.92
tensorName "rec_ensemble_r20_field_name_U_0.rank_20_field_name_U_mpi_rank_0_time_index_3860"
fieldName U
Writing reconstruction at time 5.93
tensorName "rec_ensemble_r20_field_name_U_0.rank_20_field_name_U_mpi_rank_0_time_index_3880"
fieldName U
Writing reconstruction at time 5.94
tensorName "rec_ensemble_r20_field_name_U_0.rank_20_field_name_U_mpi_rank_0_time_index_3900"
fieldName U
Writing reconstruction at time 5.95
tensorName "rec_ensemble_r20_field_name_U_0.rank_20_field_name_U_mpi_rank_0_time_index_3920"
fieldName U
Writing reconstruction at time 5.96
tensorName "rec_ensemble_r20_field_name_U_0.rank_20_field_name_U_mpi_rank_0_time_index_3940"
fieldName U
Writing reconstruction at time 5.97
tensorName "rec_ensemble_r20_field_name_U_0.rank_20_field_name_U_mpi_rank_0_time_index_3960"
fieldName U
Writing reconstruction at time 5.98
tensorName "rec_ensemble_r20_field_name_U_0.rank_20_field_name_U_mpi_rank_0_time_index_3980"
fieldName U
Writing reconstruction at time 5.99
tensorName "rec_ensemble_r20_field_name_U_0.rank_20_field_name_U_mpi_rank_0_time_index_4000"
fieldName U
Writing reconstruction at time 6
tensorName "rec_ensemble_r20_field_name_U_0.rank_20_field_name_U_mpi_rank_0_time_index_4020"
fieldName U
Writing reconstruction at time 6.01
tensorName "rec_ensemble_r20_field_name_U_0.rank_20_field_name_U_mpi_rank_0_time_index_4040"
fieldName U
Writing reconstruction at time 6.02
tensorName "rec_ensemble_r20_field_name_U_0.rank_20_field_name_U_mpi_rank_0_time_index_4060"
fieldName U
Writing reconstruction at time 6.03
tensorName "rec_ensemble_r20_field_name_U_0.rank_20_field_name_U_mpi_rank_0_time_index_4080"
fieldName U
Writing reconstruction at time 6.04
tensorName "rec_ensemble_r20_field_name_U_0.rank_20_field_name_U_mpi_rank_0_time_index_4100"
fieldName U
Writing reconstruction at time 6.05
tensorName "rec_ensemble_r20_field_name_U_0.rank_20_field_name_U_mpi_rank_0_time_index_4120"
fieldName U
Writing reconstruction at time 6.06
tensorName "rec_ensemble_r20_field_name_U_0.rank_20_field_name_U_mpi_rank_0_time_index_4140"
fieldName U
Writing reconstruction at time 6.07
tensorName "rec_ensemble_r20_field_name_U_0.rank_20_field_name_U_mpi_rank_0_time_index_4160"
fieldName U
Writing reconstruction at time 6.08
tensorName "rec_ensemble_r20_field_name_U_0.rank_20_field_name_U_mpi_rank_0_time_index_4180"
fieldName U
Writing reconstruction at time 6.09
tensorName "rec_ensemble_r20_field_name_U_0.rank_20_field_name_U_mpi_rank_0_time_index_4200"
fieldName U
Writing reconstruction at time 6.1
tensorName "rec_ensemble_r20_field_name_U_0.rank_20_field_name_U_mpi_rank_0_time_index_4220"
fieldName U
Writing reconstruction at time 6.11
tensorName "rec_ensemble_r20_field_name_U_0.rank_20_field_name_U_mpi_rank_0_time_index_4240"
fieldName U
Writing reconstruction at time 6.12
tensorName "rec_ensemble_r20_field_name_U_0.rank_20_field_name_U_mpi_rank_0_time_index_4260"
fieldName U
Writing reconstruction at time 6.13
tensorName "rec_ensemble_r20_field_name_U_0.rank_20_field_name_U_mpi_rank_0_time_index_4280"
fieldName U
Writing reconstruction at time 6.14
tensorName "rec_ensemble_r20_field_name_U_0.rank_20_field_name_U_mpi_rank_0_time_index_4300"
fieldName U
Writing reconstruction at time 6.15
tensorName "rec_ensemble_r20_field_name_U_0.rank_20_field_name_U_mpi_rank_0_time_index_4320"
fieldName U
Writing reconstruction at time 6.16
tensorName "rec_ensemble_r20_field_name_U_0.rank_20_field_name_U_mpi_rank_0_time_index_4340"
fieldName U
Writing reconstruction at time 6.17
tensorName "rec_ensemble_r20_field_name_U_0.rank_20_field_name_U_mpi_rank_0_time_index_4360"
fieldName U
Writing reconstruction at time 6.18
tensorName "rec_ensemble_r20_field_name_U_0.rank_20_field_name_U_mpi_rank_0_time_index_4380"
fieldName U
Writing reconstruction at time 6.19
tensorName "rec_ensemble_r20_field_name_U_0.rank_20_field_name_U_mpi_rank_0_time_index_4400"
fieldName U
Writing reconstruction at time 6.2
tensorName "rec_ensemble_r20_field_name_U_0.rank_20_field_name_U_mpi_rank_0_time_index_4420"
fieldName U
Writing reconstruction at time 6.21
tensorName "rec_ensemble_r20_field_name_U_0.rank_20_field_name_U_mpi_rank_0_time_index_4440"
fieldName U
Writing reconstruction at time 6.22
tensorName "rec_ensemble_r20_field_name_U_0.rank_20_field_name_U_mpi_rank_0_time_index_4460"
fieldName U
Writing reconstruction at time 6.23
tensorName "rec_ensemble_r20_field_name_U_0.rank_20_field_name_U_mpi_rank_0_time_index_4480"
fieldName U
Writing reconstruction at time 6.24
tensorName "rec_ensemble_r20_field_name_U_0.rank_20_field_name_U_mpi_rank_0_time_index_4500"
fieldName U
Writing reconstruction at time 6.25
tensorName "rec_ensemble_r20_field_name_U_0.rank_20_field_name_U_mpi_rank_0_time_index_4520"
fieldName U
Writing reconstruction at time 6.26
tensorName "rec_ensemble_r20_field_name_U_0.rank_20_field_name_U_mpi_rank_0_time_index_4540"
fieldName U
Writing reconstruction at time 6.27
tensorName "rec_ensemble_r20_field_name_U_0.rank_20_field_name_U_mpi_rank_0_time_index_4560"
fieldName U
Writing reconstruction at time 6.28
tensorName "rec_ensemble_r20_field_name_U_0.rank_20_field_name_U_mpi_rank_0_time_index_4580"
fieldName U
Writing reconstruction at time 6.29
tensorName "rec_ensemble_r20_field_name_U_0.rank_20_field_name_U_mpi_rank_0_time_index_4600"
fieldName U
Writing reconstruction at time 6.3
tensorName "rec_ensemble_r20_field_name_U_0.rank_20_field_name_U_mpi_rank_0_time_index_4620"
fieldName U
Writing reconstruction at time 6.31
tensorName "rec_ensemble_r20_field_name_U_0.rank_20_field_name_U_mpi_rank_0_time_index_4640"
fieldName U
Writing reconstruction at time 6.32
tensorName "rec_ensemble_r20_field_name_U_0.rank_20_field_name_U_mpi_rank_0_time_index_4660"
fieldName U
Writing reconstruction at time 6.33
tensorName "rec_ensemble_r20_field_name_U_0.rank_20_field_name_U_mpi_rank_0_time_index_4680"
fieldName U
Writing reconstruction at time 6.34
tensorName "rec_ensemble_r20_field_name_U_0.rank_20_field_name_U_mpi_rank_0_time_index_4700"
fieldName U
Writing reconstruction at time 6.35
tensorName "rec_ensemble_r20_field_name_U_0.rank_20_field_name_U_mpi_rank_0_time_index_4720"
fieldName U
Writing reconstruction at time 6.36
tensorName "rec_ensemble_r20_field_name_U_0.rank_20_field_name_U_mpi_rank_0_time_index_4740"
fieldName U
Writing reconstruction at time 6.37
tensorName "rec_ensemble_r20_field_name_U_0.rank_20_field_name_U_mpi_rank_0_time_index_4760"
fieldName U
Writing reconstruction at time 6.38
tensorName "rec_ensemble_r20_field_name_U_0.rank_20_field_name_U_mpi_rank_0_time_index_4780"
fieldName U
Writing reconstruction at time 6.39
tensorName "rec_ensemble_r20_field_name_U_0.rank_20_field_name_U_mpi_rank_0_time_index_4800"
fieldName U
Writing reconstruction at time 6.4
tensorName "rec_ensemble_r20_field_name_U_0.rank_20_field_name_U_mpi_rank_0_time_index_4820"
fieldName U
Writing reconstruction at time 6.41
tensorName "rec_ensemble_r20_field_name_U_0.rank_20_field_name_U_mpi_rank_0_time_index_4840"
fieldName U
Writing reconstruction at time 6.42
tensorName "rec_ensemble_r20_field_name_U_0.rank_20_field_name_U_mpi_rank_0_time_index_4860"
fieldName U
Writing reconstruction at time 6.43
tensorName "rec_ensemble_r20_field_name_U_0.rank_20_field_name_U_mpi_rank_0_time_index_4880"
fieldName U
Writing reconstruction at time 6.44
tensorName "rec_ensemble_r20_field_name_U_0.rank_20_field_name_U_mpi_rank_0_time_index_4900"
fieldName U
Writing reconstruction at time 6.45
tensorName "rec_ensemble_r20_field_name_U_0.rank_20_field_name_U_mpi_rank_0_time_index_4920"
fieldName U
Writing reconstruction at time 6.46
tensorName "rec_ensemble_r20_field_name_U_0.rank_20_field_name_U_mpi_rank_0_time_index_4940"
fieldName U
Writing reconstruction at time 6.47
tensorName "rec_ensemble_r20_field_name_U_0.rank_20_field_name_U_mpi_rank_0_time_index_4960"
fieldName U
Writing reconstruction at time 6.48
tensorName "rec_ensemble_r20_field_name_U_0.rank_20_field_name_U_mpi_rank_0_time_index_4980"
fieldName U
Writing reconstruction at time 6.49
tensorName "rec_ensemble_r20_field_name_U_0.rank_20_field_name_U_mpi_rank_0_time_index_5000"
fieldName U
Writing reconstruction at time 6.5
tensorName "rec_ensemble_r20_field_name_U_0.rank_20_field_name_U_mpi_rank_0_time_index_5020"
fieldName U
Writing reconstruction at time 6.51
tensorName "rec_ensemble_r20_field_name_U_0.rank_20_field_name_U_mpi_rank_0_time_index_5040"
fieldName U
Writing reconstruction at time 6.52
tensorName "rec_ensemble_r20_field_name_U_0.rank_20_field_name_U_mpi_rank_0_time_index_5060"
fieldName U
Writing reconstruction at time 6.53
tensorName "rec_ensemble_r20_field_name_U_0.rank_20_field_name_U_mpi_rank_0_time_index_5080"
fieldName U
Writing reconstruction at time 6.54
tensorName "rec_ensemble_r20_field_name_U_0.rank_20_field_name_U_mpi_rank_0_time_index_5100"
fieldName U
Writing reconstruction at time 6.55
tensorName "rec_ensemble_r20_field_name_U_0.rank_20_field_name_U_mpi_rank_0_time_index_5120"
fieldName U
Writing reconstruction at time 6.56
tensorName "rec_ensemble_r20_field_name_U_0.rank_20_field_name_U_mpi_rank_0_time_index_5140"
fieldName U
Writing reconstruction at time 6.57
tensorName "rec_ensemble_r20_field_name_U_0.rank_20_field_name_U_mpi_rank_0_time_index_5160"
fieldName U
Writing reconstruction at time 6.58
tensorName "rec_ensemble_r20_field_name_U_0.rank_20_field_name_U_mpi_rank_0_time_index_5180"
fieldName U
Writing reconstruction at time 6.59
tensorName "rec_ensemble_r20_field_name_U_0.rank_20_field_name_U_mpi_rank_0_time_index_5200"
fieldName U
Writing reconstruction at time 6.6
tensorName "rec_ensemble_r20_field_name_U_0.rank_20_field_name_U_mpi_rank_0_time_index_5220"
fieldName U
Writing reconstruction at time 6.61
tensorName "rec_ensemble_r20_field_name_U_0.rank_20_field_name_U_mpi_rank_0_time_index_5240"
fieldName U
Writing reconstruction at time 6.62
tensorName "rec_ensemble_r20_field_name_U_0.rank_20_field_name_U_mpi_rank_0_time_index_5260"
fieldName U
Writing reconstruction at time 6.63
tensorName "rec_ensemble_r20_field_name_U_0.rank_20_field_name_U_mpi_rank_0_time_index_5280"
fieldName U
Writing reconstruction at time 6.64
tensorName "rec_ensemble_r20_field_name_U_0.rank_20_field_name_U_mpi_rank_0_time_index_5300"
fieldName U
Writing reconstruction at time 6.65
tensorName "rec_ensemble_r20_field_name_U_0.rank_20_field_name_U_mpi_rank_0_time_index_5320"
fieldName U
Writing reconstruction at time 6.66
tensorName "rec_ensemble_r20_field_name_U_0.rank_20_field_name_U_mpi_rank_0_time_index_5340"
fieldName U
Writing reconstruction at time 6.67
tensorName "rec_ensemble_r20_field_name_U_0.rank_20_field_name_U_mpi_rank_0_time_index_5360"
fieldName U
Writing reconstruction at time 6.68
tensorName "rec_ensemble_r20_field_name_U_0.rank_20_field_name_U_mpi_rank_0_time_index_5380"
fieldName U
Writing reconstruction at time 6.69
tensorName "rec_ensemble_r20_field_name_U_0.rank_20_field_name_U_mpi_rank_0_time_index_5400"
fieldName U
Writing reconstruction at time 6.7
tensorName "rec_ensemble_r20_field_name_U_0.rank_20_field_name_U_mpi_rank_0_time_index_5420"
fieldName U
Writing reconstruction at time 6.71
tensorName "rec_ensemble_r20_field_name_U_0.rank_20_field_name_U_mpi_rank_0_time_index_5440"
fieldName U
Writing reconstruction at time 6.72
tensorName "rec_ensemble_r20_field_name_U_0.rank_20_field_name_U_mpi_rank_0_time_index_5460"
fieldName U
Writing reconstruction at time 6.73
tensorName "rec_ensemble_r20_field_name_U_0.rank_20_field_name_U_mpi_rank_0_time_index_5480"
fieldName U
Writing reconstruction at time 6.74
tensorName "rec_ensemble_r20_field_name_U_0.rank_20_field_name_U_mpi_rank_0_time_index_5500"
fieldName U
Writing reconstruction at time 6.75
tensorName "rec_ensemble_r20_field_name_U_0.rank_20_field_name_U_mpi_rank_0_time_index_5520"
fieldName U
Writing reconstruction at time 6.76
tensorName "rec_ensemble_r20_field_name_U_0.rank_20_field_name_U_mpi_rank_0_time_index_5540"
fieldName U
Writing reconstruction at time 6.77
tensorName "rec_ensemble_r20_field_name_U_0.rank_20_field_name_U_mpi_rank_0_time_index_5560"
fieldName U
Writing reconstruction at time 6.78
tensorName "rec_ensemble_r20_field_name_U_0.rank_20_field_name_U_mpi_rank_0_time_index_5580"
fieldName U
Writing reconstruction at time 6.79
tensorName "rec_ensemble_r20_field_name_U_0.rank_20_field_name_U_mpi_rank_0_time_index_5600"
fieldName U
Writing reconstruction at time 6.8
tensorName "rec_ensemble_r20_field_name_U_0.rank_20_field_name_U_mpi_rank_0_time_index_5620"
fieldName U
Writing reconstruction at time 6.81
tensorName "rec_ensemble_r20_field_name_U_0.rank_20_field_name_U_mpi_rank_0_time_index_5640"
fieldName U
Writing reconstruction at time 6.82
tensorName "rec_ensemble_r20_field_name_U_0.rank_20_field_name_U_mpi_rank_0_time_index_5660"
fieldName U
Writing reconstruction at time 6.83
tensorName "rec_ensemble_r20_field_name_U_0.rank_20_field_name_U_mpi_rank_0_time_index_5680"
fieldName U
Writing reconstruction at time 6.84
tensorName "rec_ensemble_r20_field_name_U_0.rank_20_field_name_U_mpi_rank_0_time_index_5700"
fieldName U
Writing reconstruction at time 6.85
tensorName "rec_ensemble_r20_field_name_U_0.rank_20_field_name_U_mpi_rank_0_time_index_5720"
fieldName U
Writing reconstruction at time 6.86
tensorName "rec_ensemble_r20_field_name_U_0.rank_20_field_name_U_mpi_rank_0_time_index_5740"
fieldName U
Writing reconstruction at time 6.87
tensorName "rec_ensemble_r20_field_name_U_0.rank_20_field_name_U_mpi_rank_0_time_index_5760"
fieldName U
Writing reconstruction at time 6.88
tensorName "rec_ensemble_r20_field_name_U_0.rank_20_field_name_U_mpi_rank_0_time_index_5780"
fieldName U
Writing reconstruction at time 6.89
tensorName "rec_ensemble_r20_field_name_U_0.rank_20_field_name_U_mpi_rank_0_time_index_5800"
fieldName U
Writing reconstruction at time 6.9
tensorName "rec_ensemble_r20_field_name_U_0.rank_20_field_name_U_mpi_rank_0_time_index_5820"
fieldName U
Writing reconstruction at time 6.91
tensorName "rec_ensemble_r20_field_name_U_0.rank_20_field_name_U_mpi_rank_0_time_index_5840"
fieldName U
Writing reconstruction at time 6.92
tensorName "rec_ensemble_r20_field_name_U_0.rank_20_field_name_U_mpi_rank_0_time_index_5860"
fieldName U
Writing reconstruction at time 6.93
tensorName "rec_ensemble_r20_field_name_U_0.rank_20_field_name_U_mpi_rank_0_time_index_5880"
fieldName U
Writing reconstruction at time 6.94
tensorName "rec_ensemble_r20_field_name_U_0.rank_20_field_name_U_mpi_rank_0_time_index_5900"
fieldName U
Writing reconstruction at time 6.95
tensorName "rec_ensemble_r20_field_name_U_0.rank_20_field_name_U_mpi_rank_0_time_index_5920"
fieldName U
Writing reconstruction at time 6.96
tensorName "rec_ensemble_r20_field_name_U_0.rank_20_field_name_U_mpi_rank_0_time_index_5940"
fieldName U
Writing reconstruction at time 6.97
tensorName "rec_ensemble_r20_field_name_U_0.rank_20_field_name_U_mpi_rank_0_time_index_5960"
fieldName U
Writing reconstruction at time 6.98
tensorName "rec_ensemble_r20_field_name_U_0.rank_20_field_name_U_mpi_rank_0_time_index_5980"
fieldName U
Writing reconstruction at time 6.99
tensorName "rec_ensemble_r20_field_name_U_0.rank_20_field_name_U_mpi_rank_0_time_index_6000"
fieldName U
Writing reconstruction at time 7
tensorName "rec_ensemble_r20_field_name_U_0.rank_20_field_name_U_mpi_rank_0_time_index_6020"
fieldName U
Writing reconstruction at time 7.01
tensorName "rec_ensemble_r20_field_name_U_0.rank_20_field_name_U_mpi_rank_0_time_index_6040"
fieldName U
Writing reconstruction at time 7.02
tensorName "rec_ensemble_r20_field_name_U_0.rank_20_field_name_U_mpi_rank_0_time_index_6060"
fieldName U
Writing reconstruction at time 7.03
tensorName "rec_ensemble_r20_field_name_U_0.rank_20_field_name_U_mpi_rank_0_time_index_6080"
fieldName U
Writing reconstruction at time 7.04
tensorName "rec_ensemble_r20_field_name_U_0.rank_20_field_name_U_mpi_rank_0_time_index_6100"
fieldName U
Writing reconstruction at time 7.05
tensorName "rec_ensemble_r20_field_name_U_0.rank_20_field_name_U_mpi_rank_0_time_index_6120"
fieldName U
Writing reconstruction at time 7.06
tensorName "rec_ensemble_r20_field_name_U_0.rank_20_field_name_U_mpi_rank_0_time_index_6140"
fieldName U
Writing reconstruction at time 7.07
tensorName "rec_ensemble_r20_field_name_U_0.rank_20_field_name_U_mpi_rank_0_time_index_6160"
fieldName U
Writing reconstruction at time 7.08
tensorName "rec_ensemble_r20_field_name_U_0.rank_20_field_name_U_mpi_rank_0_time_index_6180"
fieldName U
Writing reconstruction at time 7.09
tensorName "rec_ensemble_r20_field_name_U_0.rank_20_field_name_U_mpi_rank_0_time_index_6200"
fieldName U
Writing reconstruction at time 7.1
tensorName "rec_ensemble_r20_field_name_U_0.rank_20_field_name_U_mpi_rank_0_time_index_6220"
fieldName U
Writing reconstruction at time 7.11
tensorName "rec_ensemble_r20_field_name_U_0.rank_20_field_name_U_mpi_rank_0_time_index_6240"
fieldName U
Writing reconstruction at time 7.12
tensorName "rec_ensemble_r20_field_name_U_0.rank_20_field_name_U_mpi_rank_0_time_index_6260"
fieldName U
Writing reconstruction at time 7.13
tensorName "rec_ensemble_r20_field_name_U_0.rank_20_field_name_U_mpi_rank_0_time_index_6280"
fieldName U
Writing reconstruction at time 7.14
tensorName "rec_ensemble_r20_field_name_U_0.rank_20_field_name_U_mpi_rank_0_time_index_6300"
fieldName U
Writing reconstruction at time 7.15
tensorName "rec_ensemble_r20_field_name_U_0.rank_20_field_name_U_mpi_rank_0_time_index_6320"
fieldName U
Writing reconstruction at time 7.16
tensorName "rec_ensemble_r20_field_name_U_0.rank_20_field_name_U_mpi_rank_0_time_index_6340"
fieldName U
Writing reconstruction at time 7.17
tensorName "rec_ensemble_r20_field_name_U_0.rank_20_field_name_U_mpi_rank_0_time_index_6360"
fieldName U
Writing reconstruction at time 7.18
tensorName "rec_ensemble_r20_field_name_U_0.rank_20_field_name_U_mpi_rank_0_time_index_6380"
fieldName U
Writing reconstruction at time 7.19
tensorName "rec_ensemble_r20_field_name_U_0.rank_20_field_name_U_mpi_rank_0_time_index_6400"
fieldName U
Writing reconstruction at time 7.2
tensorName "rec_ensemble_r20_field_name_U_0.rank_20_field_name_U_mpi_rank_0_time_index_6420"
fieldName U
Writing reconstruction at time 7.21
tensorName "rec_ensemble_r20_field_name_U_0.rank_20_field_name_U_mpi_rank_0_time_index_6440"
fieldName U
Writing reconstruction at time 7.22
tensorName "rec_ensemble_r20_field_name_U_0.rank_20_field_name_U_mpi_rank_0_time_index_6460"
fieldName U
Writing reconstruction at time 7.23
tensorName "rec_ensemble_r20_field_name_U_0.rank_20_field_name_U_mpi_rank_0_time_index_6480"
fieldName U
Writing reconstruction at time 7.24
tensorName "rec_ensemble_r20_field_name_U_0.rank_20_field_name_U_mpi_rank_0_time_index_6500"
fieldName U
Writing reconstruction at time 7.25
tensorName "rec_ensemble_r20_field_name_U_0.rank_20_field_name_U_mpi_rank_0_time_index_6520"
fieldName U
Writing reconstruction at time 7.26
tensorName "rec_ensemble_r20_field_name_U_0.rank_20_field_name_U_mpi_rank_0_time_index_6540"
fieldName U
Writing reconstruction at time 7.27
tensorName "rec_ensemble_r20_field_name_U_0.rank_20_field_name_U_mpi_rank_0_time_index_6560"
fieldName U
Writing reconstruction at time 7.28
tensorName "rec_ensemble_r20_field_name_U_0.rank_20_field_name_U_mpi_rank_0_time_index_6580"
fieldName U
Writing reconstruction at time 7.29
tensorName "rec_ensemble_r20_field_name_U_0.rank_20_field_name_U_mpi_rank_0_time_index_6600"
fieldName U
Writing reconstruction at time 7.3
tensorName "rec_ensemble_r20_field_name_U_0.rank_20_field_name_U_mpi_rank_0_time_index_6620"
fieldName U
Writing reconstruction at time 7.31
tensorName "rec_ensemble_r20_field_name_U_0.rank_20_field_name_U_mpi_rank_0_time_index_6640"
fieldName U
Writing reconstruction at time 7.32
tensorName "rec_ensemble_r20_field_name_U_0.rank_20_field_name_U_mpi_rank_0_time_index_6660"
fieldName U
Writing reconstruction at time 7.33
tensorName "rec_ensemble_r20_field_name_U_0.rank_20_field_name_U_mpi_rank_0_time_index_6680"
fieldName U
Writing reconstruction at time 7.34
tensorName "rec_ensemble_r20_field_name_U_0.rank_20_field_name_U_mpi_rank_0_time_index_6700"
fieldName U
Writing reconstruction at time 7.35
tensorName "rec_ensemble_r20_field_name_U_0.rank_20_field_name_U_mpi_rank_0_time_index_6720"
fieldName U
Writing reconstruction at time 7.36
tensorName "rec_ensemble_r20_field_name_U_0.rank_20_field_name_U_mpi_rank_0_time_index_6740"
fieldName U
Writing reconstruction at time 7.37
tensorName "rec_ensemble_r20_field_name_U_0.rank_20_field_name_U_mpi_rank_0_time_index_6760"
fieldName U
Writing reconstruction at time 7.38
tensorName "rec_ensemble_r20_field_name_U_0.rank_20_field_name_U_mpi_rank_0_time_index_6780"
fieldName U
Writing reconstruction at time 7.39
tensorName "rec_ensemble_r20_field_name_U_0.rank_20_field_name_U_mpi_rank_0_time_index_6800"
fieldName U
Writing reconstruction at time 7.4
tensorName "rec_ensemble_r20_field_name_U_0.rank_20_field_name_U_mpi_rank_0_time_index_6820"
fieldName U
Writing reconstruction at time 7.41
tensorName "rec_ensemble_r20_field_name_U_0.rank_20_field_name_U_mpi_rank_0_time_index_6840"
fieldName U
Writing reconstruction at time 7.42
tensorName "rec_ensemble_r20_field_name_U_0.rank_20_field_name_U_mpi_rank_0_time_index_6860"
fieldName U
Writing reconstruction at time 7.43
tensorName "rec_ensemble_r20_field_name_U_0.rank_20_field_name_U_mpi_rank_0_time_index_6880"
fieldName U
Writing reconstruction at time 7.44
tensorName "rec_ensemble_r20_field_name_U_0.rank_20_field_name_U_mpi_rank_0_time_index_6900"
fieldName U
Writing reconstruction at time 7.45
tensorName "rec_ensemble_r20_field_name_U_0.rank_20_field_name_U_mpi_rank_0_time_index_6920"
fieldName U
Writing reconstruction at time 7.46
tensorName "rec_ensemble_r20_field_name_U_0.rank_20_field_name_U_mpi_rank_0_time_index_6940"
fieldName U
Writing reconstruction at time 7.47
tensorName "rec_ensemble_r20_field_name_U_0.rank_20_field_name_U_mpi_rank_0_time_index_6960"
fieldName U
Writing reconstruction at time 7.48
tensorName "rec_ensemble_r20_field_name_U_0.rank_20_field_name_U_mpi_rank_0_time_index_6980"
fieldName U
Writing reconstruction at time 7.49
tensorName "rec_ensemble_r20_field_name_U_0.rank_20_field_name_U_mpi_rank_0_time_index_7000"
fieldName U
Writing reconstruction at time 7.5
tensorName "rec_ensemble_r20_field_name_U_0.rank_20_field_name_U_mpi_rank_0_time_index_7020"
fieldName U
Writing reconstruction at time 7.51
tensorName "rec_ensemble_r20_field_name_U_0.rank_20_field_name_U_mpi_rank_0_time_index_7040"
fieldName U
Writing reconstruction at time 7.52
tensorName "rec_ensemble_r20_field_name_U_0.rank_20_field_name_U_mpi_rank_0_time_index_7060"
fieldName U
Writing reconstruction at time 7.53
tensorName "rec_ensemble_r20_field_name_U_0.rank_20_field_name_U_mpi_rank_0_time_index_7080"
fieldName U
Writing reconstruction at time 7.54
tensorName "rec_ensemble_r20_field_name_U_0.rank_20_field_name_U_mpi_rank_0_time_index_7100"
fieldName U
Writing reconstruction at time 7.55
tensorName "rec_ensemble_r20_field_name_U_0.rank_20_field_name_U_mpi_rank_0_time_index_7120"
fieldName U
Writing reconstruction at time 7.56
tensorName "rec_ensemble_r20_field_name_U_0.rank_20_field_name_U_mpi_rank_0_time_index_7140"
fieldName U
Writing reconstruction at time 7.57
tensorName "rec_ensemble_r20_field_name_U_0.rank_20_field_name_U_mpi_rank_0_time_index_7160"
fieldName U
Writing reconstruction at time 7.58
tensorName "rec_ensemble_r20_field_name_U_0.rank_20_field_name_U_mpi_rank_0_time_index_7180"
fieldName U
Writing reconstruction at time 7.59
tensorName "rec_ensemble_r20_field_name_U_0.rank_20_field_name_U_mpi_rank_0_time_index_7200"
fieldName U
Writing reconstruction at time 7.6
tensorName "rec_ensemble_r20_field_name_U_0.rank_20_field_name_U_mpi_rank_0_time_index_7220"
fieldName U
Writing reconstruction at time 7.61
tensorName "rec_ensemble_r20_field_name_U_0.rank_20_field_name_U_mpi_rank_0_time_index_7240"
fieldName U
Writing reconstruction at time 7.62
tensorName "rec_ensemble_r20_field_name_U_0.rank_20_field_name_U_mpi_rank_0_time_index_7260"
fieldName U
Writing reconstruction at time 7.63
tensorName "rec_ensemble_r20_field_name_U_0.rank_20_field_name_U_mpi_rank_0_time_index_7280"
fieldName U
Writing reconstruction at time 7.64
tensorName "rec_ensemble_r20_field_name_U_0.rank_20_field_name_U_mpi_rank_0_time_index_7300"
fieldName U
Writing reconstruction at time 7.65
tensorName "rec_ensemble_r20_field_name_U_0.rank_20_field_name_U_mpi_rank_0_time_index_7320"
fieldName U
Writing reconstruction at time 7.66
tensorName "rec_ensemble_r20_field_name_U_0.rank_20_field_name_U_mpi_rank_0_time_index_7340"
fieldName U
Writing reconstruction at time 7.67
tensorName "rec_ensemble_r20_field_name_U_0.rank_20_field_name_U_mpi_rank_0_time_index_7360"
fieldName U
Writing reconstruction at time 7.68
tensorName "rec_ensemble_r20_field_name_U_0.rank_20_field_name_U_mpi_rank_0_time_index_7380"
fieldName U
Writing reconstruction at time 7.69
tensorName "rec_ensemble_r20_field_name_U_0.rank_20_field_name_U_mpi_rank_0_time_index_7400"
fieldName U
Writing reconstruction at time 7.7
tensorName "rec_ensemble_r20_field_name_U_0.rank_20_field_name_U_mpi_rank_0_time_index_7420"
fieldName U
Writing reconstruction at time 7.71
tensorName "rec_ensemble_r20_field_name_U_0.rank_20_field_name_U_mpi_rank_0_time_index_7440"
fieldName U
Writing reconstruction at time 7.72
tensorName "rec_ensemble_r20_field_name_U_0.rank_20_field_name_U_mpi_rank_0_time_index_7460"
fieldName U
Writing reconstruction at time 7.73
tensorName "rec_ensemble_r20_field_name_U_0.rank_20_field_name_U_mpi_rank_0_time_index_7480"
fieldName U
Writing reconstruction at time 7.74
tensorName "rec_ensemble_r20_field_name_U_0.rank_20_field_name_U_mpi_rank_0_time_index_7500"
fieldName U
Writing reconstruction at time 7.75
tensorName "rec_ensemble_r20_field_name_U_0.rank_20_field_name_U_mpi_rank_0_time_index_7520"
fieldName U
Writing reconstruction at time 7.76
tensorName "rec_ensemble_r20_field_name_U_0.rank_20_field_name_U_mpi_rank_0_time_index_7540"
fieldName U
Writing reconstruction at time 7.77
tensorName "rec_ensemble_r20_field_name_U_0.rank_20_field_name_U_mpi_rank_0_time_index_7560"
fieldName U
Writing reconstruction at time 7.78
tensorName "rec_ensemble_r20_field_name_U_0.rank_20_field_name_U_mpi_rank_0_time_index_7580"
fieldName U
Writing reconstruction at time 7.79
tensorName "rec_ensemble_r20_field_name_U_0.rank_20_field_name_U_mpi_rank_0_time_index_7600"
fieldName U
Writing reconstruction at time 7.8
tensorName "rec_ensemble_r20_field_name_U_0.rank_20_field_name_U_mpi_rank_0_time_index_7620"
fieldName U
Writing reconstruction at time 7.81
tensorName "rec_ensemble_r20_field_name_U_0.rank_20_field_name_U_mpi_rank_0_time_index_7640"
fieldName U
Writing reconstruction at time 7.82
tensorName "rec_ensemble_r20_field_name_U_0.rank_20_field_name_U_mpi_rank_0_time_index_7660"
fieldName U
Writing reconstruction at time 7.83
tensorName "rec_ensemble_r20_field_name_U_0.rank_20_field_name_U_mpi_rank_0_time_index_7680"
fieldName U
Writing reconstruction at time 7.84
tensorName "rec_ensemble_r20_field_name_U_0.rank_20_field_name_U_mpi_rank_0_time_index_7700"
fieldName U
Writing reconstruction at time 7.85
tensorName "rec_ensemble_r20_field_name_U_0.rank_20_field_name_U_mpi_rank_0_time_index_7720"
fieldName U
Writing reconstruction at time 7.86
tensorName "rec_ensemble_r20_field_name_U_0.rank_20_field_name_U_mpi_rank_0_time_index_7740"
fieldName U
Writing reconstruction at time 7.87
tensorName "rec_ensemble_r20_field_name_U_0.rank_20_field_name_U_mpi_rank_0_time_index_7760"
fieldName U
Writing reconstruction at time 7.88
tensorName "rec_ensemble_r20_field_name_U_0.rank_20_field_name_U_mpi_rank_0_time_index_7780"
fieldName U
Writing reconstruction at time 7.89
tensorName "rec_ensemble_r20_field_name_U_0.rank_20_field_name_U_mpi_rank_0_time_index_7800"
fieldName U
Writing reconstruction at time 7.9
tensorName "rec_ensemble_r20_field_name_U_0.rank_20_field_name_U_mpi_rank_0_time_index_7820"
fieldName U
Writing reconstruction at time 7.91
tensorName "rec_ensemble_r20_field_name_U_0.rank_20_field_name_U_mpi_rank_0_time_index_7840"
fieldName U
Writing reconstruction at time 7.92
tensorName "rec_ensemble_r20_field_name_U_0.rank_20_field_name_U_mpi_rank_0_time_index_7860"
fieldName U
Writing reconstruction at time 7.93
tensorName "rec_ensemble_r20_field_name_U_0.rank_20_field_name_U_mpi_rank_0_time_index_7880"
fieldName U
Writing reconstruction at time 7.94
tensorName "rec_ensemble_r20_field_name_U_0.rank_20_field_name_U_mpi_rank_0_time_index_7900"
fieldName U
Writing reconstruction at time 7.95
tensorName "rec_ensemble_r20_field_name_U_0.rank_20_field_name_U_mpi_rank_0_time_index_7920"
fieldName U
Writing reconstruction at time 7.96
tensorName "rec_ensemble_r20_field_name_U_0.rank_20_field_name_U_mpi_rank_0_time_index_7940"
fieldName U
Writing reconstruction at time 7.97
tensorName "rec_ensemble_r20_field_name_U_0.rank_20_field_name_U_mpi_rank_0_time_index_7960"
fieldName U
Writing reconstruction at time 7.98
tensorName "rec_ensemble_r20_field_name_U_0.rank_20_field_name_U_mpi_rank_0_time_index_7980"
fieldName U
Writing reconstruction at time 7.99
tensorName "rec_ensemble_r20_field_name_U_0.rank_20_field_name_U_mpi_rank_0_time_index_8000"
fieldName U
Writing reconstruction at time 8
tensorName "rec_ensemble_r20_field_name_U_0.rank_20_field_name_U_mpi_rank_0_time_index_8020"
fieldName U
Writing reconstruction at time 8.01
tensorName "rec_ensemble_r20_field_name_U_0.rank_20_field_name_U_mpi_rank_0_time_index_8040"
Writing reconstruction at time 8.02
tensorName "rec_ensemble_r20_field_name_U_0.rank_20_field_name_U_mpi_rank_0_time_index_8060"
Writing reconstruction at time 8.03
tensorName "rec_ensemble_r20_field_name_U_0.rank_20_field_name_U_mpi_rank_0_time_index_8080"
Writing reconstruction at time 8.04
tensorName "rec_ensemble_r20_field_name_U_0.rank_20_field_name_U_mpi_rank_0_time_index_8100"
Writing reconstruction at time 8.05
tensorName "rec_ensemble_r20_field_name_U_0.rank_20_field_name_U_mpi_rank_0_time_index_8120"
Writing reconstruction at time 8.06
tensorName "rec_ensemble_r20_field_name_U_0.rank_20_field_name_U_mpi_rank_0_time_index_8140"
Writing reconstruction at time 8.07
tensorName "rec_ensemble_r20_field_name_U_0.rank_20_field_name_U_mpi_rank_0_time_index_8160"
Writing reconstruction at time 8.08
tensorName "rec_ensemble_r20_field_name_U_0.rank_20_field_name_U_mpi_rank_0_time_index_8180"
Writing reconstruction at time 8.09
tensorName "rec_ensemble_r20_field_name_U_0.rank_20_field_name_U_mpi_rank_0_time_index_8200"
Writing reconstruction at time 8.1
tensorName "rec_ensemble_r20_field_name_U_0.rank_20_field_name_U_mpi_rank_0_time_index_8220"
Writing reconstruction at time 8.11
tensorName "rec_ensemble_r20_field_name_U_0.rank_20_field_name_U_mpi_rank_0_time_index_8240"
Writing reconstruction at time 8.12
tensorName "rec_ensemble_r20_field_name_U_0.rank_20_field_name_U_mpi_rank_0_time_index_8260"
Writing reconstruction at time 8.13
tensorName "rec_ensemble_r20_field_name_U_0.rank_20_field_name_U_mpi_rank_0_time_index_8280"
Writing reconstruction at time 8.14
tensorName "rec_ensemble_r20_field_name_U_0.rank_20_field_name_U_mpi_rank_0_time_index_8300"
Writing reconstruction at time 8.15
tensorName "rec_ensemble_r20_field_name_U_0.rank_20_field_name_U_mpi_rank_0_time_index_8320"
Writing reconstruction at time 8.16
tensorName "rec_ensemble_r20_field_name_U_0.rank_20_field_name_U_mpi_rank_0_time_index_8340"
Writing reconstruction at time 8.17
tensorName "rec_ensemble_r20_field_name_U_0.rank_20_field_name_U_mpi_rank_0_time_index_8360"
Writing reconstruction at time 8.18
tensorName "rec_ensemble_r20_field_name_U_0.rank_20_field_name_U_mpi_rank_0_time_index_8380"
Writing reconstruction at time 8.19
tensorName "rec_ensemble_r20_field_name_U_0.rank_20_field_name_U_mpi_rank_0_time_index_8400"
Writing reconstruction at time 8.2
tensorName "rec_ensemble_r20_field_name_U_0.rank_20_field_name_U_mpi_rank_0_time_index_8420"
Writing reconstruction at time 8.21
tensorName "rec_ensemble_r20_field_name_U_0.rank_20_field_name_U_mpi_rank_0_time_index_8440"
Writing reconstruction at time 8.22
tensorName "rec_ensemble_r20_field_name_U_0.rank_20_field_name_U_mpi_rank_0_time_index_8460"
Writing reconstruction at time 8.23
tensorName "rec_ensemble_r20_field_name_U_0.rank_20_field_name_U_mpi_rank_0_time_index_8480"
Writing reconstruction at time 8.24
tensorName "rec_ensemble_r20_field_name_U_0.rank_20_field_name_U_mpi_rank_0_time_index_8500"
Writing reconstruction at time 8.25
tensorName "rec_ensemble_r20_field_name_U_0.rank_20_field_name_U_mpi_rank_0_time_index_8520"
Writing reconstruction at time 8.26
tensorName "rec_ensemble_r20_field_name_U_0.rank_20_field_name_U_mpi_rank_0_time_index_8540"
Writing reconstruction at time 8.27
tensorName "rec_ensemble_r20_field_name_U_0.rank_20_field_name_U_mpi_rank_0_time_index_8560"
Writing reconstruction at time 8.28
tensorName "rec_ensemble_r20_field_name_U_0.rank_20_field_name_U_mpi_rank_0_time_index_8580"
Writing reconstruction at time 8.29
tensorName "rec_ensemble_r20_field_name_U_0.rank_20_field_name_U_mpi_rank_0_time_index_8600"
Writing reconstruction at time 8.3
tensorName "rec_ensemble_r20_field_name_U_0.rank_20_field_name_U_mpi_rank_0_time_index_8620"
Writing reconstruction at time 8.31
tensorName "rec_ensemble_r20_field_name_U_0.rank_20_field_name_U_mpi_rank_0_time_index_8640"
Writing reconstruction at time 8.32
tensorName "rec_ensemble_r20_field_name_U_0.rank_20_field_name_U_mpi_rank_0_time_index_8660"
Writing reconstruction at time 8.33
tensorName "rec_ensemble_r20_field_name_U_0.rank_20_field_name_U_mpi_rank_0_time_index_8680"
Writing reconstruction at time 8.34
tensorName "rec_ensemble_r20_field_name_U_0.rank_20_field_name_U_mpi_rank_0_time_index_8700"
Writing reconstruction at time 8.35
tensorName "rec_ensemble_r20_field_name_U_0.rank_20_field_name_U_mpi_rank_0_time_index_8720"
Writing reconstruction at time 8.36
tensorName "rec_ensemble_r20_field_name_U_0.rank_20_field_name_U_mpi_rank_0_time_index_8740"
Writing reconstruction at time 8.37
tensorName "rec_ensemble_r20_field_name_U_0.rank_20_field_name_U_mpi_rank_0_time_index_8760"
Writing reconstruction at time 8.38
tensorName "rec_ensemble_r20_field_name_U_0.rank_20_field_name_U_mpi_rank_0_time_index_8780"
Writing reconstruction at time 8.39
tensorName "rec_ensemble_r20_field_name_U_0.rank_20_field_name_U_mpi_rank_0_time_index_8800"
Writing reconstruction at time 8.4
tensorName "rec_ensemble_r20_field_name_U_0.rank_20_field_name_U_mpi_rank_0_time_index_8820"
Writing reconstruction at time 8.41
tensorName "rec_ensemble_r20_field_name_U_0.rank_20_field_name_U_mpi_rank_0_time_index_8840"
Writing reconstruction at time 8.42
tensorName "rec_ensemble_r20_field_name_U_0.rank_20_field_name_U_mpi_rank_0_time_index_8860"
Writing reconstruction at time 8.43
tensorName "rec_ensemble_r20_field_name_U_0.rank_20_field_name_U_mpi_rank_0_time_index_8880"
Writing reconstruction at time 8.44
tensorName "rec_ensemble_r20_field_name_U_0.rank_20_field_name_U_mpi_rank_0_time_index_8900"
Writing reconstruction at time 8.45
tensorName "rec_ensemble_r20_field_name_U_0.rank_20_field_name_U_mpi_rank_0_time_index_8920"
Writing reconstruction at time 8.46
tensorName "rec_ensemble_r20_field_name_U_0.rank_20_field_name_U_mpi_rank_0_time_index_8940"
Writing reconstruction at time 8.47
tensorName "rec_ensemble_r20_field_name_U_0.rank_20_field_name_U_mpi_rank_0_time_index_8960"
Writing reconstruction at time 8.48
tensorName "rec_ensemble_r20_field_name_U_0.rank_20_field_name_U_mpi_rank_0_time_index_8980"
Writing reconstruction at time 8.49
tensorName "rec_ensemble_r20_field_name_U_0.rank_20_field_name_U_mpi_rank_0_time_index_9000"
Writing reconstruction at time 8.5
tensorName "rec_ensemble_r20_field_name_U_0.rank_20_field_name_U_mpi_rank_0_time_index_9020"
Writing reconstruction at time 8.51
tensorName "rec_ensemble_r20_field_name_U_0.rank_20_field_name_U_mpi_rank_0_time_index_9040"
Writing reconstruction at time 8.52
tensorName "rec_ensemble_r20_field_name_U_0.rank_20_field_name_U_mpi_rank_0_time_index_9060"
Writing reconstruction at time 8.53
tensorName "rec_ensemble_r20_field_name_U_0.rank_20_field_name_U_mpi_rank_0_time_index_9080"
Writing reconstruction at time 8.54
tensorName "rec_ensemble_r20_field_name_U_0.rank_20_field_name_U_mpi_rank_0_time_index_9100"
Writing reconstruction at time 8.55
tensorName "rec_ensemble_r20_field_name_U_0.rank_20_field_name_U_mpi_rank_0_time_index_9120"
Writing reconstruction at time 8.56
tensorName "rec_ensemble_r20_field_name_U_0.rank_20_field_name_U_mpi_rank_0_time_index_9140"
Writing reconstruction at time 8.57
tensorName "rec_ensemble_r20_field_name_U_0.rank_20_field_name_U_mpi_rank_0_time_index_9160"
Writing reconstruction at time 8.58
tensorName "rec_ensemble_r20_field_name_U_0.rank_20_field_name_U_mpi_rank_0_time_index_9180"
Writing reconstruction at time 8.59
tensorName "rec_ensemble_r20_field_name_U_0.rank_20_field_name_U_mpi_rank_0_time_index_9200"
Writing reconstruction at time 8.6
tensorName "rec_ensemble_r20_field_name_U_0.rank_20_field_name_U_mpi_rank_0_time_index_9220"
Writing reconstruction at time 8.61
tensorName "rec_ensemble_r20_field_name_U_0.rank_20_field_name_U_mpi_rank_0_time_index_9240"
Writing reconstruction at time 8.62
tensorName "rec_ensemble_r20_field_name_U_0.rank_20_field_name_U_mpi_rank_0_time_index_9260"
Writing reconstruction at time 8.63
tensorName "rec_ensemble_r20_field_name_U_0.rank_20_field_name_U_mpi_rank_0_time_index_9280"
Writing reconstruction at time 8.64
tensorName "rec_ensemble_r20_field_name_U_0.rank_20_field_name_U_mpi_rank_0_time_index_9300"
Writing reconstruction at time 8.65
tensorName "rec_ensemble_r20_field_name_U_0.rank_20_field_name_U_mpi_rank_0_time_index_9320"
Writing reconstruction at time 8.66
tensorName "rec_ensemble_r20_field_name_U_0.rank_20_field_name_U_mpi_rank_0_time_index_9340"
Writing reconstruction at time 8.67
tensorName "rec_ensemble_r20_field_name_U_0.rank_20_field_name_U_mpi_rank_0_time_index_9360"
Writing reconstruction at time 8.68
tensorName "rec_ensemble_r20_field_name_U_0.rank_20_field_name_U_mpi_rank_0_time_index_9380"
Writing reconstruction at time 8.69
tensorName "rec_ensemble_r20_field_name_U_0.rank_20_field_name_U_mpi_rank_0_time_index_9400"
Writing reconstruction at time 8.7
tensorName "rec_ensemble_r20_field_name_U_0.rank_20_field_name_U_mpi_rank_0_time_index_9420"
Writing reconstruction at time 8.71
tensorName "rec_ensemble_r20_field_name_U_0.rank_20_field_name_U_mpi_rank_0_time_index_9440"
Writing reconstruction at time 8.72
tensorName "rec_ensemble_r20_field_name_U_0.rank_20_field_name_U_mpi_rank_0_time_index_9460"
Writing reconstruction at time 8.73
tensorName "rec_ensemble_r20_field_name_U_0.rank_20_field_name_U_mpi_rank_0_time_index_9480"
Writing reconstruction at time 8.74
tensorName "rec_ensemble_r20_field_name_U_0.rank_20_field_name_U_mpi_rank_0_time_index_9500"
Writing reconstruction at time 8.75
tensorName "rec_ensemble_r20_field_name_U_0.rank_20_field_name_U_mpi_rank_0_time_index_9520"
Writing reconstruction at time 8.76
tensorName "rec_ensemble_r20_field_name_U_0.rank_20_field_name_U_mpi_rank_0_time_index_9540"
Writing reconstruction at time 8.77
tensorName "rec_ensemble_r20_field_name_U_0.rank_20_field_name_U_mpi_rank_0_time_index_9560"
Writing reconstruction at time 8.78
tensorName "rec_ensemble_r20_field_name_U_0.rank_20_field_name_U_mpi_rank_0_time_index_9580"
Writing reconstruction at time 8.79
tensorName "rec_ensemble_r20_field_name_U_0.rank_20_field_name_U_mpi_rank_0_time_index_9600"
Writing reconstruction at time 8.8
tensorName "rec_ensemble_r20_field_name_U_0.rank_20_field_name_U_mpi_rank_0_time_index_9620"
Writing reconstruction at time 8.81
tensorName "rec_ensemble_r20_field_name_U_0.rank_20_field_name_U_mpi_rank_0_time_index_9640"
Writing reconstruction at time 8.82
tensorName "rec_ensemble_r20_field_name_U_0.rank_20_field_name_U_mpi_rank_0_time_index_9660"
Writing reconstruction at time 8.83
tensorName "rec_ensemble_r20_field_name_U_0.rank_20_field_name_U_mpi_rank_0_time_index_9680"
Writing reconstruction at time 8.84
tensorName "rec_ensemble_r20_field_name_U_0.rank_20_field_name_U_mpi_rank_0_time_index_9700"
Writing reconstruction at time 8.85
tensorName "rec_ensemble_r20_field_name_U_0.rank_20_field_name_U_mpi_rank_0_time_index_9720"
Writing reconstruction at time 8.86
tensorName "rec_ensemble_r20_field_name_U_0.rank_20_field_name_U_mpi_rank_0_time_index_9740"
Writing reconstruction at time 8.87
tensorName "rec_ensemble_r20_field_name_U_0.rank_20_field_name_U_mpi_rank_0_time_index_9760"
Writing reconstruction at time 8.88
tensorName "rec_ensemble_r20_field_name_U_0.rank_20_field_name_U_mpi_rank_0_time_index_9780"
Writing reconstruction at time 8.89
tensorName "rec_ensemble_r20_field_name_U_0.rank_20_field_name_U_mpi_rank_0_time_index_9800"
Writing reconstruction at time 8.9
tensorName "rec_ensemble_r20_field_name_U_0.rank_20_field_name_U_mpi_rank_0_time_index_9820"
Writing reconstruction at time 8.91
tensorName "rec_ensemble_r20_field_name_U_0.rank_20_field_name_U_mpi_rank_0_time_index_9840"
Writing reconstruction at time 8.92
tensorName "rec_ensemble_r20_field_name_U_0.rank_20_field_name_U_mpi_rank_0_time_index_9860"
Writing reconstruction at time 8.93
tensorName "rec_ensemble_r20_field_name_U_0.rank_20_field_name_U_mpi_rank_0_time_index_9880"
Writing reconstruction at time 8.94
tensorName "rec_ensemble_r20_field_name_U_0.rank_20_field_name_U_mpi_rank_0_time_index_9900"
Writing reconstruction at time 8.95
tensorName "rec_ensemble_r20_field_name_U_0.rank_20_field_name_U_mpi_rank_0_time_index_9920"
Writing reconstruction at time 8.96
tensorName "rec_ensemble_r20_field_name_U_0.rank_20_field_name_U_mpi_rank_0_time_index_9940"
Writing reconstruction at time 8.97
tensorName "rec_ensemble_r20_field_name_U_0.rank_20_field_name_U_mpi_rank_0_time_index_9960"
Writing reconstruction at time 8.98
tensorName "rec_ensemble_r20_field_name_U_0.rank_20_field_name_U_mpi_rank_0_time_index_9980"
Writing reconstruction at time 8.99
tensorName "rec_ensemble_r20_field_name_U_0.rank_20_field_name_U_mpi_rank_0_time_index_10000"
Writing reconstruction at time 9
tensorName "rec_ensemble_r20_field_name_U_0.rank_20_field_name_U_mpi_rank_0_time_index_10020"
Writing reconstruction at time 9.01
tensorName "rec_ensemble_r20_field_name_U_0.rank_20_field_name_U_mpi_rank_0_time_index_10040"
Writing reconstruction at time 9.02
tensorName "rec_ensemble_r20_field_name_U_0.rank_20_field_name_U_mpi_rank_0_time_index_10060"
Writing reconstruction at time 9.03
tensorName "rec_ensemble_r20_field_name_U_0.rank_20_field_name_U_mpi_rank_0_time_index_10080"
Writing reconstruction at time 9.04
tensorName "rec_ensemble_r20_field_name_U_0.rank_20_field_name_U_mpi_rank_0_time_index_10100"
Writing reconstruction at time 9.05
tensorName "rec_ensemble_r20_field_name_U_0.rank_20_field_name_U_mpi_rank_0_time_index_10120"
Writing reconstruction at time 9.06
tensorName "rec_ensemble_r20_field_name_U_0.rank_20_field_name_U_mpi_rank_0_time_index_10140"
Writing reconstruction at time 9.07
tensorName "rec_ensemble_r20_field_name_U_0.rank_20_field_name_U_mpi_rank_0_time_index_10160"
Writing reconstruction at time 9.08
tensorName "rec_ensemble_r20_field_name_U_0.rank_20_field_name_U_mpi_rank_0_time_index_10180"
Writing reconstruction at time 9.09
tensorName "rec_ensemble_r20_field_name_U_0.rank_20_field_name_U_mpi_rank_0_time_index_10200"
Writing reconstruction at time 9.1
tensorName "rec_ensemble_r20_field_name_U_0.rank_20_field_name_U_mpi_rank_0_time_index_10220"
Writing reconstruction at time 9.11
tensorName "rec_ensemble_r20_field_name_U_0.rank_20_field_name_U_mpi_rank_0_time_index_10240"
Writing reconstruction at time 9.12
tensorName "rec_ensemble_r20_field_name_U_0.rank_20_field_name_U_mpi_rank_0_time_index_10260"
Writing reconstruction at time 9.13
tensorName "rec_ensemble_r20_field_name_U_0.rank_20_field_name_U_mpi_rank_0_time_index_10280"
Writing reconstruction at time 9.14
tensorName "rec_ensemble_r20_field_name_U_0.rank_20_field_name_U_mpi_rank_0_time_index_10300"
Writing reconstruction at time 9.15
tensorName "rec_ensemble_r20_field_name_U_0.rank_20_field_name_U_mpi_rank_0_time_index_10320"
Writing reconstruction at time 9.16
tensorName "rec_ensemble_r20_field_name_U_0.rank_20_field_name_U_mpi_rank_0_time_index_10340"
Writing reconstruction at time 9.17
tensorName "rec_ensemble_r20_field_name_U_0.rank_20_field_name_U_mpi_rank_0_time_index_10360"
Writing reconstruction at time 9.18
tensorName "rec_ensemble_r20_field_name_U_0.rank_20_field_name_U_mpi_rank_0_time_index_10380"
Writing reconstruction at time 9.19
tensorName "rec_ensemble_r20_field_name_U_0.rank_20_field_name_U_mpi_rank_0_time_index_10400"
Writing reconstruction at time 9.2
tensorName "rec_ensemble_r20_field_name_U_0.rank_20_field_name_U_mpi_rank_0_time_index_10420"
Writing reconstruction at time 9.21
tensorName "rec_ensemble_r20_field_name_U_0.rank_20_field_name_U_mpi_rank_0_time_index_10440"
Writing reconstruction at time 9.22
tensorName "rec_ensemble_r20_field_name_U_0.rank_20_field_name_U_mpi_rank_0_time_index_10460"
Writing reconstruction at time 9.23
tensorName "rec_ensemble_r20_field_name_U_0.rank_20_field_name_U_mpi_rank_0_time_index_10480"
Writing reconstruction at time 9.24
tensorName "rec_ensemble_r20_field_name_U_0.rank_20_field_name_U_mpi_rank_0_time_index_10500"
Writing reconstruction at time 9.25
tensorName "rec_ensemble_r20_field_name_U_0.rank_20_field_name_U_mpi_rank_0_time_index_10520"
Writing reconstruction at time 9.26
tensorName "rec_ensemble_r20_field_name_U_0.rank_20_field_name_U_mpi_rank_0_time_index_10540"
Writing reconstruction at time 9.27
tensorName "rec_ensemble_r20_field_name_U_0.rank_20_field_name_U_mpi_rank_0_time_index_10560"
Writing reconstruction at time 9.28
tensorName "rec_ensemble_r20_field_name_U_0.rank_20_field_name_U_mpi_rank_0_time_index_10580"
Writing reconstruction at time 9.29
tensorName "rec_ensemble_r20_field_name_U_0.rank_20_field_name_U_mpi_rank_0_time_index_10600"
Writing reconstruction at time 9.3
tensorName "rec_ensemble_r20_field_name_U_0.rank_20_field_name_U_mpi_rank_0_time_index_10620"
Writing reconstruction at time 9.31
tensorName "rec_ensemble_r20_field_name_U_0.rank_20_field_name_U_mpi_rank_0_time_index_10640"
Writing reconstruction at time 9.32
tensorName "rec_ensemble_r20_field_name_U_0.rank_20_field_name_U_mpi_rank_0_time_index_10660"
Writing reconstruction at time 9.33
tensorName "rec_ensemble_r20_field_name_U_0.rank_20_field_name_U_mpi_rank_0_time_index_10680"
Writing reconstruction at time 9.34
tensorName "rec_ensemble_r20_field_name_U_0.rank_20_field_name_U_mpi_rank_0_time_index_10700"
Writing reconstruction at time 9.35
tensorName "rec_ensemble_r20_field_name_U_0.rank_20_field_name_U_mpi_rank_0_time_index_10720"
Writing reconstruction at time 9.36
tensorName "rec_ensemble_r20_field_name_U_0.rank_20_field_name_U_mpi_rank_0_time_index_10740"
Writing reconstruction at time 9.37
tensorName "rec_ensemble_r20_field_name_U_0.rank_20_field_name_U_mpi_rank_0_time_index_10760"
Writing reconstruction at time 9.38
tensorName "rec_ensemble_r20_field_name_U_0.rank_20_field_name_U_mpi_rank_0_time_index_10780"
Writing reconstruction at time 9.39
tensorName "rec_ensemble_r20_field_name_U_0.rank_20_field_name_U_mpi_rank_0_time_index_10800"
Writing reconstruction at time 9.4
tensorName "rec_ensemble_r20_field_name_U_0.rank_20_field_name_U_mpi_rank_0_time_index_10820"
Writing reconstruction at time 9.41
tensorName "rec_ensemble_r20_field_name_U_0.rank_20_field_name_U_mpi_rank_0_time_index_10840"
Writing reconstruction at time 9.42
tensorName "rec_ensemble_r20_field_name_U_0.rank_20_field_name_U_mpi_rank_0_time_index_10860"
Writing reconstruction at time 9.43
tensorName "rec_ensemble_r20_field_name_U_0.rank_20_field_name_U_mpi_rank_0_time_index_10880"
Writing reconstruction at time 9.44
tensorName "rec_ensemble_r20_field_name_U_0.rank_20_field_name_U_mpi_rank_0_time_index_10900"
Writing reconstruction at time 9.45
tensorName "rec_ensemble_r20_field_name_U_0.rank_20_field_name_U_mpi_rank_0_time_index_10920"
Writing reconstruction at time 9.46
tensorName "rec_ensemble_r20_field_name_U_0.rank_20_field_name_U_mpi_rank_0_time_index_10940"
Writing reconstruction at time 9.47
tensorName "rec_ensemble_r20_field_name_U_0.rank_20_field_name_U_mpi_rank_0_time_index_10960"
Writing reconstruction at time 9.48
tensorName "rec_ensemble_r20_field_name_U_0.rank_20_field_name_U_mpi_rank_0_time_index_10980"
Writing reconstruction at time 9.49
tensorName "rec_ensemble_r20_field_name_U_0.rank_20_field_name_U_mpi_rank_0_time_index_11000"
Writing reconstruction at time 9.5
tensorName "rec_ensemble_r20_field_name_U_0.rank_20_field_name_U_mpi_rank_0_time_index_11020"
Writing reconstruction at time 9.51
tensorName "rec_ensemble_r20_field_name_U_0.rank_20_field_name_U_mpi_rank_0_time_index_11040"
Writing reconstruction at time 9.52
tensorName "rec_ensemble_r20_field_name_U_0.rank_20_field_name_U_mpi_rank_0_time_index_11060"
Writing reconstruction at time 9.53
tensorName "rec_ensemble_r20_field_name_U_0.rank_20_field_name_U_mpi_rank_0_time_index_11080"
Writing reconstruction at time 9.54
tensorName "rec_ensemble_r20_field_name_U_0.rank_20_field_name_U_mpi_rank_0_time_index_11100"
Writing reconstruction at time 9.55
tensorName "rec_ensemble_r20_field_name_U_0.rank_20_field_name_U_mpi_rank_0_time_index_11120"
Writing reconstruction at time 9.56
tensorName "rec_ensemble_r20_field_name_U_0.rank_20_field_name_U_mpi_rank_0_time_index_11140"
Writing reconstruction at time 9.57
tensorName "rec_ensemble_r20_field_name_U_0.rank_20_field_name_U_mpi_rank_0_time_index_11160"
Writing reconstruction at time 9.58
tensorName "rec_ensemble_r20_field_name_U_0.rank_20_field_name_U_mpi_rank_0_time_index_11180"
Writing reconstruction at time 9.59
tensorName "rec_ensemble_r20_field_name_U_0.rank_20_field_name_U_mpi_rank_0_time_index_11200"
Writing reconstruction at time 9.6
tensorName "rec_ensemble_r20_field_name_U_0.rank_20_field_name_U_mpi_rank_0_time_index_11220"
Writing reconstruction at time 9.61
tensorName "rec_ensemble_r20_field_name_U_0.rank_20_field_name_U_mpi_rank_0_time_index_11240"
Writing reconstruction at time 9.62
tensorName "rec_ensemble_r20_field_name_U_0.rank_20_field_name_U_mpi_rank_0_time_index_11260"
Writing reconstruction at time 9.63
tensorName "rec_ensemble_r20_field_name_U_0.rank_20_field_name_U_mpi_rank_0_time_index_11280"
Writing reconstruction at time 9.64
tensorName "rec_ensemble_r20_field_name_U_0.rank_20_field_name_U_mpi_rank_0_time_index_11300"
Writing reconstruction at time 9.65
[...]
Writing reconstruction at time 10.49
tensorName "rec_ensemble_r20_field_name_U_0.rank_20_field_name_U_mpi_rank_0_time_index_13000"
Writing reconstruction at time 10.5
tensorName "rec_ensemble_r20_field_name_U_0.rank_20_field_name_U_mpi_rank_0_time_index_13020"
Writing reconstruction at time 10.51
tensorName "rec_ensemble_r20_field_name_U_0.rank_20_field_name_U_mpi_rank_0_time_index_13040"
Writing reconstruction at time 10.52
tensorName "rec_ensemble_r20_field_name_U_0.rank_20_field_name_U_mpi_rank_0_time_index_13060"
Writing reconstruction at time 10.53
tensorName "rec_ensemble_r20_field_name_U_0.rank_20_field_name_U_mpi_rank_0_time_index_13080"
Writing reconstruction at time 10.54
tensorName "rec_ensemble_r20_field_name_U_0.rank_20_field_name_U_mpi_rank_0_time_index_13100"
Writing reconstruction at time 10.55
tensorName "rec_ensemble_r20_field_name_U_0.rank_20_field_name_U_mpi_rank_0_time_index_13120"
Writing reconstruction at time 10.56
tensorName "rec_ensemble_r20_field_name_U_0.rank_20_field_name_U_mpi_rank_0_time_index_13140"
Writing reconstruction at time 10.57
tensorName "rec_ensemble_r20_field_name_U_0.rank_20_field_name_U_mpi_rank_0_time_index_13160"
Writing reconstruction at time 10.58
tensorName "rec_ensemble_r20_field_name_U_0.rank_20_field_name_U_mpi_rank_0_time_index_13180"
Writing reconstruction at time 10.59
tensorName "rec_ensemble_r20_field_name_U_0.rank_20_field_name_U_mpi_rank_0_time_index_13200"
Writing reconstruction at time 10.6
tensorName "rec_ensemble_r20_field_name_U_0.rank_20_field_name_U_mpi_rank_0_time_index_13220"
Writing reconstruction at time 10.61
tensorName "rec_ensemble_r20_field_name_U_0.rank_20_field_name_U_mpi_rank_0_time_index_13240"
Writing reconstruction at time 10.62
tensorName "rec_ensemble_r20_field_name_U_0.rank_20_field_name_U_mpi_rank_0_time_index_13260"
Writing reconstruction at time 10.63
tensorName "rec_ensemble_r20_field_name_U_0.rank_20_field_name_U_mpi_rank_0_time_index_13280"
Writing reconstruction at time 10.64
tensorName "rec_ensemble_r20_field_name_U_0.rank_20_field_name_U_mpi_rank_0_time_index_13300"
Writing reconstruction at time 10.65
tensorName "rec_ensemble_r20_field_name_U_0.rank_20_field_name_U_mpi_rank_0_time_index_13320"
Writing reconstruction at time 10.66
tensorName "rec_ensemble_r20_field_name_U_0.rank_20_field_name_U_mpi_rank_0_time_index_13340"
Writing reconstruction at time 10.67
tensorName "rec_ensemble_r20_field_name_U_0.rank_20_field_name_U_mpi_rank_0_time_index_13360"
Writing reconstruction at time 10.68
tensorName "rec_ensemble_r20_field_name_U_0.rank_20_field_name_U_mpi_rank_0_time_index_13380"
Writing reconstruction at time 10.69
tensorName "rec_ensemble_r20_field_name_U_0.rank_20_field_name_U_mpi_rank_0_time_index_13400"
Writing reconstruction at time 10.7
tensorName "rec_ensemble_r20_field_name_U_0.rank_20_field_name_U_mpi_rank_0_time_index_13420"
Writing reconstruction at time 10.71
tensorName "rec_ensemble_r20_field_name_U_0.rank_20_field_name_U_mpi_rank_0_time_index_13440"
Writing reconstruction at time 10.72
tensorName "rec_ensemble_r20_field_name_U_0.rank_20_field_name_U_mpi_rank_0_time_index_13460"
Writing reconstruction at time 10.73
tensorName "rec_ensemble_r20_field_name_U_0.rank_20_field_name_U_mpi_rank_0_time_index_13480"
Writing reconstruction at time 10.74
tensorName "rec_ensemble_r20_field_name_U_0.rank_20_field_name_U_mpi_rank_0_time_index_13500"
Writing reconstruction at time 10.75
tensorName "rec_ensemble_r20_field_name_U_0.rank_20_field_name_U_mpi_rank_0_time_index_13520"
Writing reconstruction at time 10.76
tensorName "rec_ensemble_r20_field_name_U_0.rank_20_field_name_U_mpi_rank_0_time_index_13540"
Writing reconstruction at time 10.77
tensorName "rec_ensemble_r20_field_name_U_0.rank_20_field_name_U_mpi_rank_0_time_index_13560"
Writing reconstruction at time 10.78
tensorName "rec_ensemble_r20_field_name_U_0.rank_20_field_name_U_mpi_rank_0_time_index_13580"
Writing reconstruction at time 10.79
tensorName "rec_ensemble_r20_field_name_U_0.rank_20_field_name_U_mpi_rank_0_time_index_13600"
Writing reconstruction at time 10.8
tensorName "rec_ensemble_r20_field_name_U_0.rank_20_field_name_U_mpi_rank_0_time_index_13620"
Writing reconstruction at time 10.81
tensorName "rec_ensemble_r20_field_name_U_0.rank_20_field_name_U_mpi_rank_0_time_index_13640"
Writing reconstruction at time 10.82
tensorName "rec_ensemble_r20_field_name_U_0.rank_20_field_name_U_mpi_rank_0_time_index_13660"
Writing reconstruction at time 10.83
tensorName "rec_ensemble_r20_field_name_U_0.rank_20_field_name_U_mpi_rank_0_time_index_13680"
Writing reconstruction at time 10.84
tensorName "rec_ensemble_r20_field_name_U_0.rank_20_field_name_U_mpi_rank_0_time_index_13700"
Writing reconstruction at time 10.85
tensorName "rec_ensemble_r20_field_name_U_0.rank_20_field_name_U_mpi_rank_0_time_index_13720"
Writing reconstruction at time 10.86
tensorName "rec_ensemble_r20_field_name_U_0.rank_20_field_name_U_mpi_rank_0_time_index_13740"
Writing reconstruction at time 10.87
tensorName "rec_ensemble_r20_field_name_U_0.rank_20_field_name_U_mpi_rank_0_time_index_13760"
Writing reconstruction at time 10.88
tensorName "rec_ensemble_r20_field_name_U_0.rank_20_field_name_U_mpi_rank_0_time_index_13780"
Writing reconstruction at time 10.89
tensorName "rec_ensemble_r20_field_name_U_0.rank_20_field_name_U_mpi_rank_0_time_index_13800"
Writing reconstruction at time 10.9
tensorName "rec_ensemble_r20_field_name_U_0.rank_20_field_name_U_mpi_rank_0_time_index_13820"
Writing reconstruction at time 10.91
tensorName "rec_ensemble_r20_field_name_U_0.rank_20_field_name_U_mpi_rank_0_time_index_13840"
Writing reconstruction at time 10.92
tensorName "rec_ensemble_r20_field_name_U_0.rank_20_field_name_U_mpi_rank_0_time_index_13860"
Writing reconstruction at time 10.93
tensorName "rec_ensemble_r20_field_name_U_0.rank_20_field_name_U_mpi_rank_0_time_index_13880"
Writing reconstruction at time 10.94
tensorName "rec_ensemble_r20_field_name_U_0.rank_20_field_name_U_mpi_rank_0_time_index_13900"
Writing reconstruction at time 10.95
tensorName "rec_ensemble_r20_field_name_U_0.rank_20_field_name_U_mpi_rank_0_time_index_13920"
Writing reconstruction at time 10.96
tensorName "rec_ensemble_r20_field_name_U_0.rank_20_field_name_U_mpi_rank_0_time_index_13940"
Writing reconstruction at time 10.97
tensorName "rec_ensemble_r20_field_name_U_0.rank_20_field_name_U_mpi_rank_0_time_index_13960"
Writing reconstruction at time 10.98
tensorName "rec_ensemble_r20_field_name_U_0.rank_20_field_name_U_mpi_rank_0_time_index_13980"
Writing reconstruction at time 10.99
tensorName "rec_ensemble_r20_field_name_U_0.rank_20_field_name_U_mpi_rank_0_time_index_14000"
Writing reconstruction at time 11
tensorName "rec_ensemble_r20_field_name_U_0.rank_20_field_name_U_mpi_rank_0_time_index_14020"
Writing reconstruction at time 11.01
tensorName "rec_ensemble_r20_field_name_U_0.rank_20_field_name_U_mpi_rank_0_time_index_14040"
Writing reconstruction at time 11.02
tensorName "rec_ensemble_r20_field_name_U_0.rank_20_field_name_U_mpi_rank_0_time_index_14060"
Writing reconstruction at time 11.03
tensorName "rec_ensemble_r20_field_name_U_0.rank_20_field_name_U_mpi_rank_0_time_index_14080"
Writing reconstruction at time 11.04
tensorName "rec_ensemble_r20_field_name_U_0.rank_20_field_name_U_mpi_rank_0_time_index_14100"
Writing reconstruction at time 11.05
tensorName "rec_ensemble_r20_field_name_U_0.rank_20_field_name_U_mpi_rank_0_time_index_14120"
Writing reconstruction at time 11.06
tensorName "rec_ensemble_r20_field_name_U_0.rank_20_field_name_U_mpi_rank_0_time_index_14140"
Writing reconstruction at time 11.07
tensorName "rec_ensemble_r20_field_name_U_0.rank_20_field_name_U_mpi_rank_0_time_index_14160"
Writing reconstruction at time 11.08
tensorName "rec_ensemble_r20_field_name_U_0.rank_20_field_name_U_mpi_rank_0_time_index_14180"
Writing reconstruction at time 11.09
tensorName "rec_ensemble_r20_field_name_U_0.rank_20_field_name_U_mpi_rank_0_time_index_14200"
Writing reconstruction at time 11.1
tensorName "rec_ensemble_r20_field_name_U_0.rank_20_field_name_U_mpi_rank_0_time_index_14220"
Writing reconstruction at time 11.11
tensorName "rec_ensemble_r20_field_name_U_0.rank_20_field_name_U_mpi_rank_0_time_index_14240"
Writing reconstruction at time 11.12
tensorName "rec_ensemble_r20_field_name_U_0.rank_20_field_name_U_mpi_rank_0_time_index_14260"
Writing reconstruction at time 11.13
tensorName "rec_ensemble_r20_field_name_U_0.rank_20_field_name_U_mpi_rank_0_time_index_14280"
Writing reconstruction at time 11.14
tensorName "rec_ensemble_r20_field_name_U_0.rank_20_field_name_U_mpi_rank_0_time_index_14300"
Writing reconstruction at time 11.15
tensorName "rec_ensemble_r20_field_name_U_0.rank_20_field_name_U_mpi_rank_0_time_index_14320"
Writing reconstruction at time 11.16
tensorName "rec_ensemble_r20_field_name_U_0.rank_20_field_name_U_mpi_rank_0_time_index_14340"
Writing reconstruction at time 11.17
tensorName "rec_ensemble_r20_field_name_U_0.rank_20_field_name_U_mpi_rank_0_time_index_14360"
Writing reconstruction at time 11.18
tensorName "rec_ensemble_r20_field_name_U_0.rank_20_field_name_U_mpi_rank_0_time_index_14380"
Writing reconstruction at time 11.19
tensorName "rec_ensemble_r20_field_name_U_0.rank_20_field_name_U_mpi_rank_0_time_index_14400"
Writing reconstruction at time 11.2
tensorName "rec_ensemble_r20_field_name_U_0.rank_20_field_name_U_mpi_rank_0_time_index_14420"
Writing reconstruction at time 11.21
tensorName "rec_ensemble_r20_field_name_U_0.rank_20_field_name_U_mpi_rank_0_time_index_14440"
Writing reconstruction at time 11.22
tensorName "rec_ensemble_r20_field_name_U_0.rank_20_field_name_U_mpi_rank_0_time_index_14460"
Writing reconstruction at time 11.23
tensorName "rec_ensemble_r20_field_name_U_0.rank_20_field_name_U_mpi_rank_0_time_index_14480"
Writing reconstruction at time 11.24
tensorName "rec_ensemble_r20_field_name_U_0.rank_20_field_name_U_mpi_rank_0_time_index_14500"
Writing reconstruction at time 11.25
tensorName "rec_ensemble_r20_field_name_U_0.rank_20_field_name_U_mpi_rank_0_time_index_14520"
Writing reconstruction at time 11.26
tensorName "rec_ensemble_r20_field_name_U_0.rank_20_field_name_U_mpi_rank_0_time_index_14540"
Writing reconstruction at time 11.27
tensorName "rec_ensemble_r20_field_name_U_0.rank_20_field_name_U_mpi_rank_0_time_index_14560"
Writing reconstruction at time 11.28
tensorName "rec_ensemble_r20_field_name_U_0.rank_20_field_name_U_mpi_rank_0_time_index_14580"
Writing reconstruction at time 11.29
tensorName "rec_ensemble_r20_field_name_U_0.rank_20_field_name_U_mpi_rank_0_time_index_14600"
Writing reconstruction at time 11.3
tensorName "rec_ensemble_r20_field_name_U_0.rank_20_field_name_U_mpi_rank_0_time_index_14620"
Writing reconstruction at time 11.31
tensorName "rec_ensemble_r20_field_name_U_0.rank_20_field_name_U_mpi_rank_0_time_index_14640"
Writing reconstruction at time 11.32
tensorName "rec_ensemble_r20_field_name_U_0.rank_20_field_name_U_mpi_rank_0_time_index_14660"
Writing reconstruction at time 11.33
tensorName "rec_ensemble_r20_field_name_U_0.rank_20_field_name_U_mpi_rank_0_time_index_14680"
Writing reconstruction at time 11.34
tensorName "rec_ensemble_r20_field_name_U_0.rank_20_field_name_U_mpi_rank_0_time_index_14700"
Writing reconstruction at time 11.35
tensorName "rec_ensemble_r20_field_name_U_0.rank_20_field_name_U_mpi_rank_0_time_index_14720"
Writing reconstruction at time 11.36
tensorName "rec_ensemble_r20_field_name_U_0.rank_20_field_name_U_mpi_rank_0_time_index_14740"
Writing reconstruction at time 11.37
tensorName "rec_ensemble_r20_field_name_U_0.rank_20_field_name_U_mpi_rank_0_time_index_14760"
Writing reconstruction at time 11.38
tensorName "rec_ensemble_r20_field_name_U_0.rank_20_field_name_U_mpi_rank_0_time_index_14780"
Writing reconstruction at time 11.39
tensorName "rec_ensemble_r20_field_name_U_0.rank_20_field_name_U_mpi_rank_0_time_index_14800"
Writing reconstruction at time 11.4
tensorName "rec_ensemble_r20_field_name_U_0.rank_20_field_name_U_mpi_rank_0_time_index_14820"
Writing reconstruction at time 11.41
tensorName "rec_ensemble_r20_field_name_U_0.rank_20_field_name_U_mpi_rank_0_time_index_14840"
Writing reconstruction at time 11.42
tensorName "rec_ensemble_r20_field_name_U_0.rank_20_field_name_U_mpi_rank_0_time_index_14860"
Writing reconstruction at time 11.43
tensorName "rec_ensemble_r20_field_name_U_0.rank_20_field_name_U_mpi_rank_0_time_index_14880"
Writing reconstruction at time 11.44
tensorName "rec_ensemble_r20_field_name_U_0.rank_20_field_name_U_mpi_rank_0_time_index_14900"
Writing reconstruction at time 11.45
tensorName "rec_ensemble_r20_field_name_U_0.rank_20_field_name_U_mpi_rank_0_time_index_14920"
Writing reconstruction at time 11.46
tensorName "rec_ensemble_r20_field_name_U_0.rank_20_field_name_U_mpi_rank_0_time_index_14940"
Writing reconstruction at time 11.47
tensorName "rec_ensemble_r20_field_name_U_0.rank_20_field_name_U_mpi_rank_0_time_index_14960"
Writing reconstruction at time 11.48
tensorName "rec_ensemble_r20_field_name_U_0.rank_20_field_name_U_mpi_rank_0_time_index_14980"
Writing reconstruction at time 11.49
tensorName "rec_ensemble_r20_field_name_U_0.rank_20_field_name_U_mpi_rank_0_time_index_15000"
Writing reconstruction at time 11.5
tensorName "rec_ensemble_r20_field_name_U_0.rank_20_field_name_U_mpi_rank_0_time_index_15020"
Writing reconstruction at time 11.51
tensorName "rec_ensemble_r20_field_name_U_0.rank_20_field_name_U_mpi_rank_0_time_index_15040"
Writing reconstruction at time 11.52
tensorName "rec_ensemble_r20_field_name_U_0.rank_20_field_name_U_mpi_rank_0_time_index_15060"
Writing reconstruction at time 11.53
tensorName "rec_ensemble_r20_field_name_U_0.rank_20_field_name_U_mpi_rank_0_time_index_15080"
Writing reconstruction at time 11.54
tensorName "rec_ensemble_r20_field_name_U_0.rank_20_field_name_U_mpi_rank_0_time_index_15100"
Writing reconstruction at time 11.55
tensorName "rec_ensemble_r20_field_name_U_0.rank_20_field_name_U_mpi_rank_0_time_index_15120"
Writing reconstruction at time 11.56
tensorName "rec_ensemble_r20_field_name_U_0.rank_20_field_name_U_mpi_rank_0_time_index_15140"
Writing reconstruction at time 11.57
tensorName "rec_ensemble_r20_field_name_U_0.rank_20_field_name_U_mpi_rank_0_time_index_15160"
Writing reconstruction at time 11.58
tensorName "rec_ensemble_r20_field_name_U_0.rank_20_field_name_U_mpi_rank_0_time_index_15180"
Writing reconstruction at time 11.59
tensorName "rec_ensemble_r20_field_name_U_0.rank_20_field_name_U_mpi_rank_0_time_index_15200"
Writing reconstruction at time 11.6
tensorName "rec_ensemble_r20_field_name_U_0.rank_20_field_name_U_mpi_rank_0_time_index_15220"
Writing reconstruction at time 11.61
tensorName "rec_ensemble_r20_field_name_U_0.rank_20_field_name_U_mpi_rank_0_time_index_15240"
Writing reconstruction at time 11.62
tensorName "rec_ensemble_r20_field_name_U_0.rank_20_field_name_U_mpi_rank_0_time_index_15260"
Writing reconstruction at time 11.63
tensorName "rec_ensemble_r20_field_name_U_0.rank_20_field_name_U_mpi_rank_0_time_index_15280"
Writing reconstruction at time 11.64
tensorName "rec_ensemble_r20_field_name_U_0.rank_20_field_name_U_mpi_rank_0_time_index_15300"
Writing reconstruction at time 11.65
tensorName "rec_ensemble_r20_field_name_U_0.rank_20_field_name_U_mpi_rank_0_time_index_15320"
Writing reconstruction at time 11.66
tensorName "rec_ensemble_r20_field_name_U_0.rank_20_field_name_U_mpi_rank_0_time_index_15340"
Writing reconstruction at time 11.67
tensorName "rec_ensemble_r20_field_name_U_0.rank_20_field_name_U_mpi_rank_0_time_index_15360"
Writing reconstruction at time 11.68
tensorName "rec_ensemble_r20_field_name_U_0.rank_20_field_name_U_mpi_rank_0_time_index_15380"
Writing reconstruction at time 11.69
tensorName "rec_ensemble_r20_field_name_U_0.rank_20_field_name_U_mpi_rank_0_time_index_15400"
Writing reconstruction at time 11.7
tensorName "rec_ensemble_r20_field_name_U_0.rank_20_field_name_U_mpi_rank_0_time_index_15420"
Writing reconstruction at time 11.71
tensorName "rec_ensemble_r20_field_name_U_0.rank_20_field_name_U_mpi_rank_0_time_index_15440"
Writing reconstruction at time 11.72
tensorName "rec_ensemble_r20_field_name_U_0.rank_20_field_name_U_mpi_rank_0_time_index_15460"
Writing reconstruction at time 11.73
tensorName "rec_ensemble_r20_field_name_U_0.rank_20_field_name_U_mpi_rank_0_time_index_15480"
Writing reconstruction at time 11.74
tensorName "rec_ensemble_r20_field_name_U_0.rank_20_field_name_U_mpi_rank_0_time_index_15500"
Writing reconstruction at time 11.75
tensorName "rec_ensemble_r20_field_name_U_0.rank_20_field_name_U_mpi_rank_0_time_index_15520"
Writing reconstruction at time 11.76
tensorName "rec_ensemble_r20_field_name_U_0.rank_20_field_name_U_mpi_rank_0_time_index_15540"
Writing reconstruction at time 11.77
tensorName "rec_ensemble_r20_field_name_U_0.rank_20_field_name_U_mpi_rank_0_time_index_15560"
Writing reconstruction at time 11.78
tensorName "rec_ensemble_r20_field_name_U_0.rank_20_field_name_U_mpi_rank_0_time_index_15580"
Writing reconstruction at time 11.79
tensorName "rec_ensemble_r20_field_name_U_0.rank_20_field_name_U_mpi_rank_0_time_index_15600"
Writing reconstruction at time 11.8
tensorName "rec_ensemble_r20_field_name_U_0.rank_20_field_name_U_mpi_rank_0_time_index_15620"
Writing reconstruction at time 11.81
tensorName "rec_ensemble_r20_field_name_U_0.rank_20_field_name_U_mpi_rank_0_time_index_15640"
Writing reconstruction at time 11.82
tensorName "rec_ensemble_r20_field_name_U_0.rank_20_field_name_U_mpi_rank_0_time_index_15660"
Writing reconstruction at time 11.83
tensorName "rec_ensemble_r20_field_name_U_0.rank_20_field_name_U_mpi_rank_0_time_index_15680"
Writing reconstruction at time 11.84
tensorName "rec_ensemble_r20_field_name_U_0.rank_20_field_name_U_mpi_rank_0_time_index_15700"
Writing reconstruction at time 11.85
tensorName "rec_ensemble_r20_field_name_U_0.rank_20_field_name_U_mpi_rank_0_time_index_15720"
Writing reconstruction at time 11.86
tensorName "rec_ensemble_r20_field_name_U_0.rank_20_field_name_U_mpi_rank_0_time_index_15740"
Writing reconstruction at time 11.87
tensorName "rec_ensemble_r20_field_name_U_0.rank_20_field_name_U_mpi_rank_0_time_index_15760"
Writing reconstruction at time 11.88
tensorName "rec_ensemble_r20_field_name_U_0.rank_20_field_name_U_mpi_rank_0_time_index_15780"
Writing reconstruction at time 11.89
tensorName "rec_ensemble_r20_field_name_U_0.rank_20_field_name_U_mpi_rank_0_time_index_15800"
Writing reconstruction at time 11.9
tensorName "rec_ensemble_r20_field_name_U_0.rank_20_field_name_U_mpi_rank_0_time_index_15820"
Writing reconstruction at time 11.91
tensorName "rec_ensemble_r20_field_name_U_0.rank_20_field_name_U_mpi_rank_0_time_index_15840"
Writing reconstruction at time 11.92
tensorName "rec_ensemble_r20_field_name_U_0.rank_20_field_name_U_mpi_rank_0_time_index_15860"
Writing reconstruction at time 11.93
tensorName "rec_ensemble_r20_field_name_U_0.rank_20_field_name_U_mpi_rank_0_time_index_15880"
Writing reconstruction at time 11.94
tensorName "rec_ensemble_r20_field_name_U_0.rank_20_field_name_U_mpi_rank_0_time_index_15900"
Writing reconstruction at time 11.95
tensorName "rec_ensemble_r20_field_name_U_0.rank_20_field_name_U_mpi_rank_0_time_index_15920"
Writing reconstruction at time 11.96
tensorName "rec_ensemble_r20_field_name_U_0.rank_20_field_name_U_mpi_rank_0_time_index_15940"
Writing reconstruction at time 11.97
tensorName "rec_ensemble_r20_field_name_U_0.rank_20_field_name_U_mpi_rank_0_time_index_15960"
Writing reconstruction at time 11.98
tensorName "rec_ensemble_r20_field_name_U_0.rank_20_field_name_U_mpi_rank_0_time_index_15980"
Writing reconstruction at time 11.99
tensorName "rec_ensemble_r20_field_name_U_0.rank_20_field_name_U_mpi_rank_0_time_index_16000"
Writing reconstruction at time 12
tensorName "rec_ensemble_r20_field_name_U_0.rank_20_field_name_U_mpi_rank_0_time_index_16020"
Finalising parallel run
