/*---------------------------------------------------------------------------*\
| =========                 |                                                 |
| \\      /  F ield         | OpenFOAM: The Open Source CFD Toolbox           |
|  \\    /   O peration     | Version:  2406                                  |
|   \\  /    A nd           | Website:  www.openfoam.com                      |
|    \\/     M anipulation  |                                                 |
\*---------------------------------------------------------------------------*/
Build  : _9bfe8264-20241212 OPENFOAM=2406 patch=241212 version=2406
Arch   : "LSB;label=32;scalar=64"
Exec   : /usr/lib/openfoam/openfoam2406/platforms/linux64GccDPInt32Opt/bin/pimpleFoam -postProcess -dict system/FO_force -parallel
Date   : Jan 14 2026
Time   : 17:10:47
Host   : A380
PID    : 6956
I/O    : uncollated
Case   : /home/tanuj/Masters_Thesis/AFC_using_DRL_DMDc/dmdc/evaluation/makeFields/run/cylinder/Random_walk/DRL_signal
nProcs : 2
Hosts  :
(
    (A380 2)
)
Pstream initialized with:
    floatTransfer      : false
    maxCommsSize       : 0
    nProcsSimpleSum    : 0
    nonBlockingExchange: 0 (tuning: 0)
    exchange algorithm : 0
    commsType          : nonBlocking
    polling iterations : 0
trapFpe: Floating point exception trapping enabled (FOAM_SIGFPE).
fileModificationChecking : Monitoring run-time modified files using timeStampMaster (fileModificationSkew 5, maxFileModificationPolls 20)
allowSystemOperations : Allowing user-supplied system call operations

// * * * * * * * * * * * * * * * * * * * * * * * * * * * * * * * * * * * * * //
Create time

Create mesh for time = 0


PIMPLE: max iterations = 50
    field "(U|p)"	: relTol 0, tolerance 0.0001

forceCoeffs forces_recon:
    rho: rhoInf
    Freestream density (rhoInf) set to 1
    Not including porosity effects
    magUInf: 1
    lRef   : 0.1
    Aref   : 0.001
    rhoInf : 1
    Selecting all coefficients
    - Drag force: Cd
    - Drag force front: Cd(f)
    - Drag force rear: Cd(r)
    - Lift force: Cl
    - Lift force front: Cl(f)
    - Lift force rear: Cl(r)
    - Pitch moment: CmPitch
    - Roll moment: CmRoll
    - Yaw moment: CmYaw
    - Side force: Cs
    - Side force front: Cs(f)
    - Side force rear: Cs(r)


Time = 0
Reading field p

Reading field U

Reading/calculating face flux field phi

Selecting incompressible transport model Newtonian
Selecting turbulence model type laminar
Selecting laminar stress model Stokes
No MRF models present

No finite volume options present
forceCoeffs forces_recon write:
    Coefficient	Total	Pressure	Viscous	Internal
    Cd:	0	0	0	0
    Cd(f):	0	0	0	0
    Cd(r):	0	0	0	0
    Cl:	0	0	0	0
    Cl(f):	0	0	0	0
    Cl(r):	0	0	0	0
    CmPitch:	0	0	0	0
    CmRoll:	0	0	0	0
    CmYaw:	0	0	0	0
    Cs:	0	0	0	0
    Cs(f):	0	0	0	0
    Cs(r):	0	0	0	0

    writing force and moment coefficient files.


Time = 4
Reading field p

Reading field U

Reading/calculating face flux field phi

Selecting incompressible transport model Newtonian
Selecting turbulence model type laminar
Selecting laminar stress model Stokes
No MRF models present

No finite volume options present
forceCoeffs forces_recon write:
    Coefficient	Total	Pressure	Viscous	Internal
    Cd:	3.1571908	2.4671163	0.69007452	0
    Cd(f):	1.5785954	1.2335581	0.34503726	0
    Cd(r):	1.5785954	1.2335581	0.34503726	0
    Cl:	0.018020928	0.066632397	-0.048611469	0
    Cl(f):	0.2012162	0.033316198	0.16790001	0
    Cl(r):	-0.18319528	0.033316199	-0.21651148	0
    CmPitch:	0.19220574	-1.8536401e-10	0.19220574	0
    CmRoll:	1.5079221e-16	1.567423e-16	-5.9500908e-18	0
    CmYaw:	-2.5600867e-17	-1.9596823e-17	-6.0040447e-18	0
    Cs:	-2.3573143e-16	-2.3602092e-16	2.8948945e-19	0
    Cs(f):	-1.4346658e-16	-1.3760728e-16	-5.8593e-18	0
    Cs(r):	-9.2264847e-17	-9.8413636e-17	6.1487895e-18	0

    writing force and moment coefficient files.


Time = 4.01
Reading field p

Reading field U

Reading/calculating face flux field phi

Selecting incompressible transport model Newtonian
Selecting turbulence model type laminar
Selecting laminar stress model Stokes
No MRF models present

No finite volume options present
forceCoeffs forces_recon write:
    Coefficient	Total	Pressure	Viscous	Internal
    Cd:	3.158464	2.449022	0.70944209	0
    Cd(f):	1.579232	1.224511	0.35472105	0
    Cd(r):	1.579232	1.224511	0.35472105	0
    Cl:	0.12425521	0.14755522	-0.023300004	0
    Cl(f):	-0.52736688	0.073777608	-0.60114449	0
    Cl(r):	0.65162209	0.073777608	0.57784448	0
    CmPitch:	-0.58949448	-6.6536676e-11	-0.58949448	0
    CmRoll:	1.4811926e-16	1.5442487e-16	-6.3056121e-18	0
    CmYaw:	-2.3079215e-17	-1.8043831e-17	-5.0353848e-18	0
    Cs:	-2.3772911e-16	-2.3835518e-16	6.2607296e-19	0
    Cs(f):	-1.4194377e-16	-1.3722142e-16	-4.7223483e-18	0
    Cs(r):	-9.5785338e-17	-1.0113376e-16	5.3484213e-18	0

    writing force and moment coefficient files.


Time = 4.02
Reading field p

Reading field U

Reading/calculating face flux field phi

Selecting incompressible transport model Newtonian
Selecting turbulence model type laminar
Selecting laminar stress model Stokes
No MRF models present

No finite volume options present
forceCoeffs forces_recon write:
    Coefficient	Total	Pressure	Viscous	Internal
    Cd:	3.1435651	2.4466619	0.69690321	0
    Cd(f):	1.5717826	1.223331	0.3484516	0
    Cd(r):	1.5717826	1.223331	0.3484516	0
    Cl:	0.26785205	0.27243037	-0.004578328	0
    Cl(f):	-0.041245141	0.13621519	-0.17746033	0
    Cl(r):	0.30909719	0.13621519	0.172882	0
    CmPitch:	-0.17517116	1.7189275e-10	-0.17517116	0
    CmRoll:	1.5209226e-16	1.5805334e-16	-5.961079e-18	0
    CmYaw:	-2.204714e-17	-1.6663502e-17	-5.3836378e-18	0
    Cs:	-2.5177252e-16	-2.5281916e-16	1.0466479e-18	0
    Cs(f):	-1.479334e-16	-1.4307308e-16	-4.8603138e-18	0
    Cs(r):	-1.0383912e-16	-1.0974608e-16	5.9069618e-18	0

    writing force and moment coefficient files.


Time = 4.03
Reading field p

Reading field U

Reading/calculating face flux field phi

Selecting incompressible transport model Newtonian
Selecting turbulence model type laminar
Selecting laminar stress model Stokes
No MRF models present

No finite volume options present
forceCoeffs forces_recon write:
    Coefficient	Total	Pressure	Viscous	Internal
    Cd:	3.1519682	2.4485531	0.70341503	0
    Cd(f):	1.5759841	1.2242766	0.35170752	0
    Cd(r):	1.5759841	1.2242766	0.35170752	0
    Cl:	0.39654711	0.38229772	0.014249386	0
    Cl(f):	-0.23799744	0.19114886	-0.4291463	0
    Cl(r):	0.63454455	0.19114886	0.44339568	0
    CmPitch:	-0.43627099	4.1261848e-10	-0.43627099	0
    CmRoll:	1.5496047e-16	1.6098773e-16	-6.0272612e-18	0
    CmYaw:	-2.0583403e-17	-1.5774742e-17	-4.808661e-18	0
    Cs:	-2.638905e-16	-2.6545413e-16	1.5636288e-18	0
    Cs(f):	-1.5252865e-16	-1.4850181e-16	-4.0268466e-18	0
    Cs(r):	-1.1136185e-16	-1.1695232e-16	5.5904754e-18	0

    writing force and moment coefficient files.


Time = 4.04
Reading field p

Reading field U

Reading/calculating face flux field phi

Selecting incompressible transport model Newtonian
Selecting turbulence model type laminar
Selecting laminar stress model Stokes
No MRF models present

No finite volume options present
forceCoeffs forces_recon write:
    Coefficient	Total	Pressure	Viscous	Internal
    Cd:	3.1433769	2.4545123	0.68886459	0
    Cd(f):	1.5716884	1.2272561	0.34443229	0
    Cd(r):	1.5716884	1.2272561	0.34443229	0
    Cl:	0.50509668	0.47265589	0.032440796	0
    Cl(f):	0.31807628	0.23632794	0.081748335	0
    Cl(r):	0.1870204	0.23632794	-0.049307539	0
    CmPitch:	0.065527938	6.3828237e-10	0.065527937	0
    CmRoll:	1.5753431e-16	1.6317749e-16	-5.6431825e-18	0
    CmYaw:	-2.0650286e-17	-1.5465726e-17	-5.1845602e-18	0
    Cs:	-2.7385324e-16	-2.7601226e-16	2.1590239e-18	0
    Cs(f):	-1.5757691e-16	-1.5347186e-16	-4.1050483e-18	0
    Cs(r):	-1.1627633e-16	-1.2254041e-16	6.2640722e-18	0

    writing force and moment coefficient files.


Time = 4.05
Reading field p

Reading field U

Reading/calculating face flux field phi

Selecting incompressible transport model Newtonian
Selecting turbulence model type laminar
Selecting laminar stress model Stokes
No MRF models present

No finite volume options present
forceCoeffs forces_recon write:
    Coefficient	Total	Pressure	Viscous	Internal
    Cd:	3.1595966	2.4636117	0.69598493	0
    Cd(f):	1.5797983	1.2318059	0.34799246	0
    Cd(r):	1.5797983	1.2318059	0.34799246	0
    Cl:	0.58880752	0.53954701	0.049260509	0
    Cl(f):	0.098805448	0.26977351	-0.17096806	0
    Cl(r):	0.49000208	0.26977351	0.22022857	0
    CmPitch:	-0.19559831	8.3260214e-10	-0.19559831	0
    CmRoll:	1.5888891e-16	1.6461953e-16	-5.7306166e-18	0
    CmYaw:	-2.0265534e-17	-1.5716814e-17	-4.5487191e-18	0
    Cs:	-2.8139619e-16	-2.8419952e-16	2.8033317e-18	0
    Cs(f):	-1.6096363e-16	-1.5781658e-16	-3.1470532e-18	0
    Cs(r):	-1.2043256e-16	-1.2638295e-16	5.950385e-18	0

    writing force and moment coefficient files.


Time = 4.06
Reading field p

Reading field U

Reading/calculating face flux field phi

Selecting incompressible transport model Newtonian
Selecting turbulence model type laminar
Selecting laminar stress model Stokes
No MRF models present

No finite volume options present
forceCoeffs forces_recon write:
    Coefficient	Total	Pressure	Viscous	Internal
    Cd:	3.1722664	2.4742992	0.69796714	0
    Cd(f):	1.5861332	1.2371496	0.34898357	0
    Cd(r):	1.5861332	1.2371496	0.34898357	0
    Cl:	0.64413252	0.58008579	0.064046731	0
    Cl(f):	0.061862399	0.2900429	-0.2281805	0
    Cl(r):	0.58227012	0.29004289	0.29222723	0
    CmPitch:	-0.26020386	9.8478607e-10	-0.26020386	0
    CmRoll:	1.5964428e-16	1.6535816e-16	-5.7138776e-18	0
    CmYaw:	-2.0542971e-17	-1.6379618e-17	-4.163353e-18	0
    Cs:	-2.8618529e-16	-2.8964645e-16	3.4611637e-18	0
    Cs(f):	-1.6363561e-16	-1.6120284e-16	-2.4327712e-18	0
    Cs(r):	-1.2254967e-16	-1.2844361e-16	5.8939349e-18	0

    writing force and moment coefficient files.


Time = 4.07
Reading field p

Reading field U

Reading/calculating face flux field phi

Selecting incompressible transport model Newtonian
Selecting turbulence model type laminar
Selecting laminar stress model Stokes
No MRF models present

No finite volume options present
forceCoeffs forces_recon write:
    Coefficient	Total	Pressure	Viscous	Internal
    Cd:	3.1703444	2.4846649	0.68567948	0
    Cd(f):	1.5851722	1.2423325	0.34283974	0
    Cd(r):	1.5851722	1.2423325	0.34283974	0
    Cl:	0.66847469	0.59222084	0.076253854	0
    Cl(f):	0.53025653	0.29611042	0.23414611	0
    Cl(r):	0.13821816	0.29611042	-0.15789226	0
    CmPitch:	0.19601919	1.0899175e-09	0.19601918	0
    CmRoll:	1.6004415e-16	1.6544209e-16	-5.3979384e-18	0
    CmYaw:	-2.1670511e-17	-1.7203395e-17	-4.467116e-18	0
    Cs:	-2.877493e-16	-2.9184677e-16	4.0974714e-18	0
    Cs(f):	-1.6554516e-16	-1.6312678e-16	-2.4183803e-18	0
    Cs(r):	-1.2220414e-16	-1.2871999e-16	6.5158517e-18	0

    writing force and moment coefficient files.


Time = 4.08
Reading field p

Reading field U

Reading/calculating face flux field phi

Selecting incompressible transport model Newtonian
Selecting turbulence model type laminar
Selecting laminar stress model Stokes
No MRF models present

No finite volume options present
forceCoeffs forces_recon write:
    Coefficient	Total	Pressure	Viscous	Internal
    Cd:	3.1811202	2.492857	0.68826319	0
    Cd(f):	1.5905601	1.2464285	0.3441316	0
    Cd(r):	1.5905601	1.2464285	0.3441316	0
    Cl:	0.66021066	0.57475158	0.085459082	0
    Cl(f):	0.4559507	0.28737579	0.16857491	0
    Cl(r):	0.20425996	0.28737579	-0.083115826	0
    CmPitch:	0.12584537	1.1470861e-09	0.12584537	0
    CmRoll:	1.5949411e-16	1.6490646e-16	-5.4123478e-18	0
    CmYaw:	-2.201774e-17	-1.789972e-17	-4.1180207e-18	0
    Cs:	-2.8556424e-16	-2.9024436e-16	4.6801194e-18	0
    Cs(f):	-1.6479986e-16	-1.630219e-16	-1.777961e-18	0
    Cs(r):	-1.2076438e-16	-1.2722246e-16	6.4580804e-18	0

    writing force and moment coefficient files.


Time = 4.09
Reading field p

Reading field U

Reading/calculating face flux field phi

Selecting incompressible transport model Newtonian
Selecting turbulence model type laminar
Selecting laminar stress model Stokes
No MRF models present

No finite volume options present
forceCoeffs forces_recon write:
    Coefficient	Total	Pressure	Viscous	Internal
    Cd:	3.1933763	2.4975401	0.69583621	0
    Cd(f):	1.5966882	1.2487701	0.34791811	0
    Cd(r):	1.5966882	1.2487701	0.34791811	0
    Cl:	0.61903922	0.52769123	0.091347988	0
    Cl(f):	0.18601615	0.26384562	-0.077829469	0
    Cl(r):	0.43302307	0.26384562	0.16917746	0
    CmPitch:	-0.12350346	1.1574185e-09	-0.12350346	0
    CmRoll:	1.582329e-16	1.6377977e-16	-5.5468713e-18	0
    CmYaw:	-2.1799839e-17	-1.8221788e-17	-3.578051e-18	0
    Cs:	-2.7924251e-16	-2.8442382e-16	5.1813185e-18	0
    Cs(f):	-1.6142109e-16	-1.604337e-16	-9.8739172e-19	0
    Cs(r):	-1.1782141e-16	-1.2399012e-16	6.1687102e-18	0

    writing force and moment coefficient files.


Time = 4.1
Reading field p

Reading field U

Reading/calculating face flux field phi

Selecting incompressible transport model Newtonian
Selecting turbulence model type laminar
Selecting laminar stress model Stokes
No MRF models present

No finite volume options present
forceCoeffs forces_recon write:
    Coefficient	Total	Pressure	Viscous	Internal
    Cd:	3.1939645	2.4982104	0.69575417	0
    Cd(f):	1.5969823	1.2491052	0.34787708	0
    Cd(r):	1.5969823	1.2491052	0.34787708	0
    Cl:	0.54592597	0.45221854	0.093707434	0
    Cl(f):	0.16720887	0.22610927	-0.058900403	0
    Cl(r):	0.3787171	0.22610927	0.15260784	0
    CmPitch:	-0.10575412	1.1229468e-09	-0.10575412	0
    CmRoll:	1.5653496e-16	1.6206675e-16	-5.5317946e-18	0
    CmYaw:	-2.1461272e-17	-1.8028205e-17	-3.4330665e-18	0
    Cs:	-2.6862501e-16	-2.7420379e-16	5.5787822e-18	0
    Cs(f):	-1.5577378e-16	-1.551301e-16	-6.4367541e-19	0
    Cs(r):	-1.1285123e-16	-1.1907369e-16	6.2224576e-18	0

    writing force and moment coefficient files.


Time = 4.11
Reading field p

Reading field U

Reading/calculating face flux field phi

Selecting incompressible transport model Newtonian
Selecting turbulence model type laminar
Selecting laminar stress model Stokes
No MRF models present

No finite volume options present
forceCoeffs forces_recon write:
    Coefficient	Total	Pressure	Viscous	Internal
    Cd:	3.2377357	2.5416351	0.69610064	0
    Cd(f):	1.6188678	1.2708175	0.34805032	0
    Cd(r):	1.6188678	1.2708175	0.34805032	0
    Cl:	0.54066295	0.45518891	0.085474036	0
    Cl(f):	0.2794527	0.22759446	0.051858244	0
    Cl(r):	0.26121025	0.22759445	0.033615792	0
    CmPitch:	0.0091212279	2.0938729e-09	0.0091212258	0
    CmRoll:	1.6532908e-16	1.70639e-16	-5.3099197e-18	0
    CmYaw:	-1.867102e-17	-1.628187e-17	-2.3891502e-18	0
    Cs:	-2.7609339e-16	-2.8219794e-16	6.1045504e-18	0
    Cs(f):	-1.5671772e-16	-1.5738084e-16	6.6312503e-19	0
    Cs(r):	-1.1937568e-16	-1.248171e-16	5.4414253e-18	0

    writing force and moment coefficient files.


Time = 4.12
Reading field p

Reading field U

Reading/calculating face flux field phi

Selecting incompressible transport model Newtonian
Selecting turbulence model type laminar
Selecting laminar stress model Stokes
No MRF models present

No finite volume options present
forceCoeffs forces_recon write:
    Coefficient	Total	Pressure	Viscous	Internal
    Cd:	3.2108283	2.5314823	0.67934604	0
    Cd(f):	1.6054142	1.2657412	0.33967302	0
    Cd(r):	1.6054142	1.2657412	0.33967302	0
    Cl:	0.43967613	0.3640847	0.075591431	0
    Cl(f):	0.83032804	0.18204235	0.64828568	0
    Cl(r):	-0.3906519	0.18204235	-0.57269425	0
    CmPitch:	0.61048997	2.1236823e-09	0.61048997	0
    CmRoll:	1.6747942e-16	1.7243243e-16	-4.9530125e-18	0
    CmYaw:	-1.5454912e-17	-1.2624362e-17	-2.8305497e-18	0
    Cs:	-2.609848e-16	-2.6751561e-16	6.5308109e-18	0
    Cs(f):	-1.4594731e-16	-1.4638217e-16	4.3485572e-19	0
    Cs(r):	-1.1503749e-16	-1.2113344e-16	6.0959552e-18	0

    writing force and moment coefficient files.


Time = 4.13
Reading field p

Reading field U

Reading/calculating face flux field phi

Selecting incompressible transport model Newtonian
Selecting turbulence model type laminar
Selecting laminar stress model Stokes
No MRF models present

No finite volume options present
forceCoeffs forces_recon write:
    Coefficient	Total	Pressure	Viscous	Internal
    Cd:	3.1951073	2.5176937	0.67741367	0
    Cd(f):	1.5975537	1.2588468	0.33870683	0
    Cd(r):	1.5975537	1.2588468	0.33870683	0
    Cl:	0.3224218	0.25945163	0.062970176	0
    Cl(f):	0.8416967	0.12972582	0.71197088	0
    Cl(r):	-0.51927489	0.12972581	-0.64900071	0
    CmPitch:	0.6804858	2.0158821e-09	0.68048579	0
    CmRoll:	1.6911682e-16	1.7405947e-16	-4.9426549e-18	0
    CmYaw:	-1.1418531e-17	-8.6938304e-18	-2.7247008e-18	0
    Cs:	-2.4375607e-16	-2.5057628e-16	6.8202025e-18	0
    Cs(f):	-1.3329657e-16	-1.3398197e-16	6.8540043e-19	0
    Cs(r):	-1.1045951e-16	-1.1659431e-16	6.1348021e-18	0

    writing force and moment coefficient files.


Time = 4.14
Reading field p

Reading field U

Reading/calculating face flux field phi

Selecting incompressible transport model Newtonian
Selecting turbulence model type laminar
Selecting laminar stress model Stokes
No MRF models present

No finite volume options present
forceCoeffs forces_recon write:
    Coefficient	Total	Pressure	Viscous	Internal
    Cd:	3.2023351	2.502817	0.69951815	0
    Cd(f):	1.6011676	1.2514085	0.34975907	0
    Cd(r):	1.6011676	1.2514085	0.34975907	0
    Cl:	0.19280626	0.14440675	0.048399506	0
    Cl(f):	-0.012801352	0.072203377	-0.085004729	0
    Cl(r):	0.20560761	0.072203374	0.13340424	0
    CmPitch:	-0.10920448	1.7718818e-09	-0.10920448	0
    CmRoll:	1.6963982e-16	1.751168e-16	-5.4769838e-18	0
    CmYaw:	-6.6469836e-18	-4.9827427e-18	-1.6642409e-18	0
    Cs:	-2.2519434e-16	-2.3213451e-16	6.9401763e-18	0
    Cs(f):	-1.1924415e-16	-1.2105e-16	1.8058472e-18	0
    Cs(r):	-1.0595018e-16	-1.1108451e-16	5.1343291e-18	0

    writing force and moment coefficient files.


Time = 4.15
Reading field p

Reading field U

Reading/calculating face flux field phi

Selecting incompressible transport model Newtonian
Selecting turbulence model type laminar
Selecting laminar stress model Stokes
No MRF models present

No finite volume options present
forceCoeffs forces_recon write:
    Coefficient	Total	Pressure	Viscous	Internal
    Cd:	3.1672724	2.4893754	0.67789699	0
    Cd(f):	1.5836362	1.2446877	0.3389485	0
    Cd(r):	1.5836362	1.2446877	0.3389485	0
    Cl:	0.055056295	0.022424938	0.032631357	0
    Cl(f):	0.69453646	0.01121247	0.68332399	0
    Cl(r):	-0.63948016	0.011212468	-0.65069263	0
    CmPitch:	0.66700831	1.4079774e-09	0.66700831	0
    CmRoll:	1.7015319e-16	1.75248e-16	-5.0948075e-18	0
    CmYaw:	-4.7777708e-18	-1.9815697e-18	-2.7962012e-18	0
    Cs:	-2.0620757e-16	-2.130802e-16	6.8726278e-18	0
    Cs(f):	-1.0788156e-16	-1.0852167e-16	6.4011274e-19	0
    Cs(r):	-9.8326016e-17	-1.0455853e-16	6.2325151e-18	0

    writing force and moment coefficient files.


Time = 4.16
Reading field p

Reading field U

Reading/calculating face flux field phi

Selecting incompressible transport model Newtonian
Selecting turbulence model type laminar
Selecting laminar stress model Stokes
No MRF models present

No finite volume options present
forceCoeffs forces_recon write:
    Coefficient	Total	Pressure	Viscous	Internal
    Cd:	3.1653866	2.4794068	0.68597981	0
    Cd(f):	1.5826933	1.2397034	0.3429899	0
    Cd(r):	1.5826933	1.2397034	0.3429899	0
    Cl:	-0.086686212	-0.10307024	0.016384024	0
    Cl(f):	0.34105202	-0.051535117	0.39258714	0
    Cl(r):	-0.42773823	-0.051535119	-0.37620311	0
    CmPitch:	0.38439513	9.4933958e-10	0.38439513	0
    CmRoll:	1.6877438e-16	1.7414653e-16	-5.3721494e-18	0
    CmYaw:	-2.8404708e-18	-1.312727e-19	-2.7091981e-18	0
    Cs:	-1.8771138e-16	-1.9431944e-16	6.6080605e-18	0
    Cs(f):	-9.6696159e-17	-9.7290991e-17	5.948322e-19	0
    Cs(r):	-9.1015217e-17	-9.7028445e-17	6.0132283e-18	0

    writing force and moment coefficient files.


Time = 4.17
Reading field p

Reading field U

Reading/calculating face flux field phi

Selecting incompressible transport model Newtonian
Selecting turbulence model type laminar
Selecting laminar stress model Stokes
No MRF models present

No finite volume options present
forceCoeffs forces_recon write:
    Coefficient	Total	Pressure	Viscous	Internal
    Cd:	3.1607433	2.4743233	0.68642001	0
    Cd(f):	1.5803716	1.2371616	0.34321001	0
    Cd(r):	1.5803716	1.2371616	0.34321001	0
    Cl:	-0.22857785	-0.22884607	0.00026822737	0
    Cl(f):	0.26563616	-0.11442304	0.3800592	0
    Cl(r):	-0.49421401	-0.11442304	-0.37979097	0
    CmPitch:	0.37992508	4.3022944e-10	0.37992508	0
    CmRoll:	1.6608937e-16	1.7158726e-16	-5.4978868e-18	0
    CmYaw:	-2.8672168e-18	2.4976596e-19	-3.1169828e-18	0
    Cs:	-1.7048924e-16	-1.7663401e-16	6.1447681e-18	0
    Cs(f):	-8.8111837e-17	-8.8067238e-17	-4.4598737e-20	0
    Cs(r):	-8.2377403e-17	-8.856677e-17	6.1893668e-18	0

    writing force and moment coefficient files.


Time = 4.18
Reading field p

Reading field U

Reading/calculating face flux field phi

Selecting incompressible transport model Newtonian
Selecting turbulence model type laminar
Selecting laminar stress model Stokes
No MRF models present

No finite volume options present
forceCoeffs forces_recon write:
    Coefficient	Total	Pressure	Viscous	Internal
    Cd:	3.1587778	2.4748325	0.68394536	0
    Cd(f):	1.5793889	1.2374162	0.34197268	0
    Cd(r):	1.5793889	1.2374162	0.34197268	0
    Cl:	-0.36681398	-0.35162579	-0.015188195	0
    Cl(f):	0.30117423	-0.17581289	0.47698713	0
    Cl(r):	-0.66798821	-0.17581289	-0.49217532	0
    CmPitch:	0.48458122	-1.082417e-10	0.48458122	0
    CmRoll:	1.6190027e-16	1.674652e-16	-5.5649347e-18	0
    CmYaw:	-4.747587e-18	-9.7680197e-19	-3.770785e-18	0
    Cs:	-1.5511022e-16	-1.6060194e-16	5.4917165e-18	0
    Cs(f):	-8.2302698e-17	-8.1277771e-17	-1.0249267e-18	0
    Cs(r):	-7.2807524e-17	-7.9324167e-17	6.5166432e-18	0

    writing force and moment coefficient files.


Time = 4.19
Reading field p

Reading field U

Reading/calculating face flux field phi

Selecting incompressible transport model Newtonian
Selecting turbulence model type laminar
Selecting laminar stress model Stokes
No MRF models present

No finite volume options present
forceCoeffs forces_recon write:
    Coefficient	Total	Pressure	Viscous	Internal
    Cd:	3.1787907	2.4809519	0.69783884	0
    Cd(f):	1.5893954	1.2404759	0.34891942	0
    Cd(r):	1.5893954	1.2404759	0.34891942	0
    Cl:	-0.49733666	-0.46772095	-0.029615711	0
    Cl(f):	-0.24072465	-0.23386047	-0.0068641725	0
    Cl(r):	-0.25661201	-0.23386047	-0.022751538	0
    CmPitch:	0.0079436823	-6.1762414e-10	0.0079436829	0
    CmRoll:	1.5590239e-16	1.6188085e-16	-5.9784541e-18	0
    CmYaw:	-7.4409539e-18	-3.7090011e-18	-3.7319528e-18	0
    Cs:	-1.4191494e-16	-1.4659206e-16	4.6771251e-18	0
    Cs(f):	-7.8398422e-17	-7.7005032e-17	-1.3933902e-18	0
    Cs(r):	-6.3516515e-17	-6.958703e-17	6.0705154e-18	0

    writing force and moment coefficient files.


Time = 4.2
Reading field p

Reading field U

Reading/calculating face flux field phi

Selecting incompressible transport model Newtonian
Selecting turbulence model type laminar
Selecting laminar stress model Stokes
No MRF models present

No finite volume options present
forceCoeffs forces_recon write:
    Coefficient	Total	Pressure	Viscous	Internal
    Cd:	3.1857122	2.4918886	0.69382361	0
    Cd(f):	1.5928561	1.2459443	0.34691181	0
    Cd(r):	1.5928561	1.2459443	0.34691181	0
    Cl:	-0.61558621	-0.57275947	-0.042826748	0
    Cl(f):	-0.13322459	-0.28637973	0.15315515	0
    Cl(r):	-0.48236163	-0.28637973	-0.19598189	0
    CmPitch:	0.17456852	-1.0476823e-09	0.17456852	0
    CmRoll:	1.4920716e-16	1.5519838e-16	-5.9912194e-18	0
    CmYaw:	-1.212989e-17	-7.5969183e-18	-4.5329714e-18	0
    Cs:	-1.3109209e-16	-1.3484552e-16	3.7534267e-18	0
    Cs(f):	-7.7675936e-17	-7.5019678e-17	-2.656258e-18	0
    Cs(r):	-5.3416156e-17	-5.9825841e-17	6.4096848e-18	0

    writing force and moment coefficient files.


Time = 4.21
Reading field p

Reading field U

Reading/calculating face flux field phi

Selecting incompressible transport model Newtonian
Selecting turbulence model type laminar
Selecting laminar stress model Stokes
No MRF models present

No finite volume options present
forceCoeffs forces_recon write:
    Coefficient	Total	Pressure	Viscous	Internal
    Cd:	3.2117615	2.5294957	0.68226581	0
    Cd(f):	1.6058807	1.2647478	0.34113291	0
    Cd(r):	1.6058807	1.2647478	0.34113291	0
    Cl:	-0.7871684	-0.69771873	-0.089449664	0
    Cl(f):	0.2042073	-0.34885937	0.55306666	0
    Cl(r):	-0.9913757	-0.34885937	-0.64251633	0
    CmPitch:	0.5977915	-5.7282331e-11	0.5977915	0
    CmRoll:	1.4914872e-16	1.5484046e-16	-5.6917376e-18	0
    CmYaw:	-1.108879e-17	-7.0924586e-18	-3.9963316e-18	0
    Cs:	-1.1673429e-16	-1.2037569e-16	3.6413948e-18	0
    Cs(f):	-6.9455936e-17	-6.7280302e-17	-2.1756342e-18	0
    Cs(r):	-4.7278356e-17	-5.3095385e-17	5.817029e-18	0

    writing force and moment coefficient files.


Time = 4.22
Reading field p

Reading field U

Reading/calculating face flux field phi

Selecting incompressible transport model Newtonian
Selecting turbulence model type laminar
Selecting laminar stress model Stokes
No MRF models present

No finite volume options present
forceCoeffs forces_recon write:
    Coefficient	Total	Pressure	Viscous	Internal
    Cd:	3.2501189	2.5552649	0.69485396	0
    Cd(f):	1.6250594	1.2776325	0.34742698	0
    Cd(r):	1.6250594	1.2776325	0.34742698	0
    Cl:	-0.80520452	-0.701311	-0.10389352	0
    Cl(f):	-0.17789696	-0.3506555	0.17275855	0
    Cl(r):	-0.62730757	-0.3506555	-0.27665206	0
    CmPitch:	0.22470531	-3.1869934e-10	0.22470531	0
    CmRoll:	1.4737127e-16	1.5341477e-16	-6.0434995e-18	0
    CmYaw:	-1.7073833e-17	-1.3189363e-17	-3.8844708e-18	0
    Cs:	-1.2650839e-16	-1.2946805e-16	2.9596603e-18	0
    Cs(f):	-8.0328031e-17	-7.792339e-17	-2.4046407e-18	0
    Cs(r):	-4.6180364e-17	-5.1544665e-17	5.364301e-18	0

    writing force and moment coefficient files.


Time = 4.23
Reading field p

Reading field U

Reading/calculating face flux field phi

Selecting incompressible transport model Newtonian
Selecting turbulence model type laminar
Selecting laminar stress model Stokes
No MRF models present

No finite volume options present
forceCoeffs forces_recon write:
    Coefficient	Total	Pressure	Viscous	Internal
    Cd:	3.2737543	2.5809909	0.6927634	0
    Cd(f):	1.6368771	1.2904954	0.3463817	0
    Cd(r):	1.6368771	1.2904954	0.3463817	0
    Cl:	-0.79116682	-0.67668604	-0.11448078	0
    Cl(f):	-0.016599166	-0.33834302	0.32174385	0
    Cl(r):	-0.77456765	-0.33834302	-0.43622463	0
    CmPitch:	0.37898424	-5.5872403e-10	0.37898424	0
    CmRoll:	1.4618278e-16	1.5225066e-16	-6.0678822e-18	0
    CmYaw:	-2.406201e-17	-1.9586092e-17	-4.4759183e-18	0
    Cs:	-1.4008792e-16	-1.423705e-16	2.2825826e-18	0
    Cs(f):	-9.410597e-17	-9.0771343e-17	-3.334627e-18	0
    Cs(r):	-4.5981949e-17	-5.1599159e-17	5.6172096e-18	0

    writing force and moment coefficient files.


Time = 4.24
Reading field p

Reading field U

Reading/calculating face flux field phi

Selecting incompressible transport model Newtonian
Selecting turbulence model type laminar
Selecting laminar stress model Stokes
No MRF models present

No finite volume options present
forceCoeffs forces_recon write:
    Coefficient	Total	Pressure	Viscous	Internal
    Cd:	3.2875091	2.6029655	0.68454363	0
    Cd(f):	1.6437546	1.3014827	0.34227182	0
    Cd(r):	1.6437546	1.3014827	0.34227182	0
    Cl:	-0.7457861	-0.62498016	-0.12080594	0
    Cl(f):	0.37616734	-0.31249008	0.68865742	0
    Cl(r):	-1.1219534	-0.31249008	-0.80946336	0
    CmPitch:	0.74906039	-7.7292119e-10	0.74906039	0
    CmRoll:	1.4573572e-16	1.5167993e-16	-5.9442075e-18	0
    CmYaw:	-3.0908622e-17	-2.5546733e-17	-5.3618895e-18	0
    Cs:	-1.5646156e-16	-1.5808264e-16	1.6210787e-18	0
    Cs(f):	-1.091394e-16	-1.0458805e-16	-4.5513501e-18	0
    Cs(r):	-4.732216e-17	-5.3494589e-17	6.1724288e-18	0

    writing force and moment coefficient files.


Time = 4.25
Reading field p

Reading field U

Reading/calculating face flux field phi

Selecting incompressible transport model Newtonian
Selecting turbulence model type laminar
Selecting laminar stress model Stokes
No MRF models present

No finite volume options present
forceCoeffs forces_recon write:
    Coefficient	Total	Pressure	Viscous	Internal
    Cd:	3.3329022	2.6180123	0.71488989	0
    Cd(f):	1.6664511	1.3090062	0.35744494	0
    Cd(r):	1.6664511	1.3090062	0.35744494	0
    Cl:	-0.67066904	-0.54806645	-0.12260259	0
    Cl(f):	-0.60164799	-0.27403323	-0.32761477	0
    Cl(r):	-0.06902105	-0.27403322	0.20501217	0
    CmPitch:	-0.26631347	-9.551852e-10	-0.26631347	0
    CmRoll:	1.453778e-16	1.520063e-16	-6.6285088e-18	0
    CmYaw:	-3.4843178e-17	-3.0378867e-17	-4.4643109e-18	0
    Cs:	-1.7461463e-16	-1.755969e-16	9.8226793e-19	0
    Cs(f):	-1.221505e-16	-1.1817732e-16	-3.9731769e-18	0
    Cs(r):	-5.246414e-17	-5.7419585e-17	4.9554448e-18	0

    writing force and moment coefficient files.


Time = 4.26
Reading field p

Reading field U

Reading/calculating face flux field phi

Selecting incompressible transport model Newtonian
Selecting turbulence model type laminar
Selecting laminar stress model Stokes
No MRF models present

No finite volume options present
forceCoeffs forces_recon write:
    Coefficient	Total	Pressure	Viscous	Internal
    Cd:	3.3175497	2.6236653	0.69388444	0
    Cd(f):	1.6587749	1.3118326	0.34694222	0
    Cd(r):	1.6587749	1.3118326	0.34694222	0
    Cl:	-0.56844031	-0.44869681	-0.1197435	0
    Cl(f):	0.2602499	-0.22434841	0.4845983	0
    Cl(r):	-0.82869021	-0.2243484	-0.60434181	0
    CmPitch:	0.54447006	-1.0967286e-09	0.54447006	0
    CmRoll:	1.4723924e-16	1.5341988e-16	-6.1806413e-18	0
    CmYaw:	-3.9454569e-17	-3.3514903e-17	-5.939666e-18	0
    Cs:	-1.9350039e-16	-1.9387989e-16	3.7949709e-19	0
    Cs(f):	-1.3620477e-16	-1.3045485e-16	-5.7499174e-18	0
    Cs(r):	-5.7295628e-17	-6.3425043e-17	6.1294145e-18	0

    writing force and moment coefficient files.


Time = 4.27
Reading field p

Reading field U

Reading/calculating face flux field phi

Selecting incompressible transport model Newtonian
Selecting turbulence model type laminar
Selecting laminar stress model Stokes
No MRF models present

No finite volume options present
forceCoeffs forces_recon write:
    Coefficient	Total	Pressure	Viscous	Internal
    Cd:	3.3155208	2.6192092	0.69631165	0
    Cd(f):	1.6577604	1.3096046	0.34815582	0
    Cd(r):	1.6577604	1.3096046	0.34815582	0
    Cl:	-0.4435472	-0.33125731	-0.11228989	0
    Cl(f):	0.28130779	-0.16562865	0.44693644	0
    Cl(r):	-0.72485499	-0.16562865	-0.55922633	0
    CmPitch:	0.50308139	-1.1872806e-09	0.50308139	0
    CmRoll:	1.4973162e-16	1.5593931e-16	-6.20769e-18	0
    CmYaw:	-4.0937454e-17	-3.4637783e-17	-6.2996711e-18	0
    Cs:	-2.120861e-16	-2.1192152e-16	-1.645866e-19	0
    Cs(f):	-1.4698051e-16	-1.4059854e-16	-6.3819644e-18	0
    Cs(r):	-6.5105597e-17	-7.1322975e-17	6.2173778e-18	0

    writing force and moment coefficient files.


Time = 4.28
Reading field p

Reading field U

Reading/calculating face flux field phi

Selecting incompressible transport model Newtonian
Selecting turbulence model type laminar
Selecting laminar stress model Stokes
No MRF models present

No finite volume options present
forceCoeffs forces_recon write:
    Coefficient	Total	Pressure	Viscous	Internal
    Cd:	3.3251603	2.6060039	0.71915638	0
    Cd(f):	1.6625801	1.3030019	0.35957819	0
    Cd(r):	1.6625801	1.3030019	0.35957819	0
    Cl:	-0.30014874	-0.19970331	-0.10044543	0
    Cl(f):	-0.43343023	-0.099851655	-0.33357858	0
    Cl(r):	0.13328149	-0.099851652	0.23313314	0
    CmPitch:	-0.28335586	-1.2184936e-09	-0.28335586	0
    CmRoll:	1.5280673e-16	1.5945102e-16	-6.6442875e-18	0
    CmYaw:	-3.9432918e-17	-3.3770452e-17	-5.6624663e-18	0
    Cs:	-2.2978691e-16	-2.2916436e-16	-6.2255015e-19	0
    Cs(f):	-1.5432637e-16	-1.4835263e-16	-5.9737413e-18	0
    Cs(r):	-7.5460539e-17	-8.081173e-17	5.3511912e-18	0

    writing force and moment coefficient files.


Time = 4.29
Reading field p

Reading field U

Reading/calculating face flux field phi

Selecting incompressible transport model Newtonian
Selecting turbulence model type laminar
Selecting laminar stress model Stokes
No MRF models present

No finite volume options present
forceCoeffs forces_recon write:
    Coefficient	Total	Pressure	Viscous	Internal
    Cd:	3.294346	2.5867753	0.70757075	0
    Cd(f):	1.647173	1.2933876	0.35378538	0
    Cd(r):	1.647173	1.2933876	0.35378538	0
    Cl:	-0.14370317	-0.059024383	-0.08467879	0
    Cl(f):	0.071242608	-0.029512193	0.1007548	0
    Cl(r):	-0.21494578	-0.02951219	-0.18543359	0
    CmPitch:	0.14309419	-1.1842598e-09	0.1430942	0
    CmRoll:	1.5732164e-16	1.6363625e-16	-6.314609e-18	0
    CmYaw:	-3.7831059e-17	-3.1292035e-17	-6.5390245e-18	0
    Cs:	-2.462814e-16	-2.4531937e-16	-9.6203066e-19	0
    Cs(f):	-1.6097176e-16	-1.5395172e-16	-7.0200398e-18	0
    Cs(r):	-8.530964e-17	-9.1367649e-17	6.0580091e-18	0

    writing force and moment coefficient files.


Time = 4.3
Reading field p

Reading field U

Reading/calculating face flux field phi

Selecting incompressible transport model Newtonian
Selecting turbulence model type laminar
Selecting laminar stress model Stokes
No MRF models present

No finite volume options present
forceCoeffs forces_recon write:
    Coefficient	Total	Pressure	Viscous	Internal
    Cd:	3.2839782	2.5661709	0.7178073	0
    Cd(f):	1.6419891	1.2830855	0.35890365	0
    Cd(r):	1.6419891	1.2830855	0.35890365	0
    Cl:	0.01899753	0.084722982	-0.065725452	0
    Cl(f):	-0.21669484	0.04236149	-0.25905633	0
    Cl(r):	0.23569237	0.042361492	0.19333088	0
    CmPitch:	-0.22619361	-1.080431e-09	-0.2261936	0
    CmRoll:	1.6162523e-16	1.6806042e-16	-6.4351914e-18	0
    CmYaw:	-3.4204786e-17	-2.7907363e-17	-6.2974232e-18	0
    Cs:	-2.6157686e-16	-2.6042729e-16	-1.1495649e-18	0
    Cs(f):	-1.6499321e-16	-1.5812101e-16	-6.8722056e-18	0
    Cs(r):	-9.6583642e-17	-1.0230628e-16	5.7226407e-18	0

    writing force and moment coefficient files.


Time = 4.31
Reading field p

Reading field U

Reading/calculating face flux field phi

Selecting incompressible transport model Newtonian
Selecting turbulence model type laminar
Selecting laminar stress model Stokes
No MRF models present

No finite volume options present
forceCoeffs forces_recon write:
    Coefficient	Total	Pressure	Viscous	Internal
    Cd:	3.2136506	2.5235355	0.69011508	0
    Cd(f):	1.6068253	1.2617678	0.34505754	0
    Cd(r):	1.6068253	1.2617678	0.34505754	0
    Cl:	0.21630147	0.2886553	-0.072353827	0
    Cl(f):	0.58903927	0.14432765	0.44471162	0
    Cl(r):	-0.3727378	0.14432765	-0.51706545	0
    CmPitch:	0.48088853	1.2628377e-11	0.48088853	0
    CmRoll:	1.758664e-16	1.8168621e-16	-5.8198055e-18	0
    CmYaw:	-2.7113327e-17	-2.1284668e-17	-5.8286588e-18	0
    Cs:	-2.9028452e-16	-2.9016544e-16	-1.1907829e-19	0
    Cs(f):	-1.7225559e-16	-1.6636739e-16	-5.888198e-18	0
    Cs(r):	-1.1802893e-16	-1.2379805e-16	5.7691197e-18	0

    writing force and moment coefficient files.


Time = 4.32
Reading field p

Reading field U

Reading/calculating face flux field phi

Selecting incompressible transport model Newtonian
Selecting turbulence model type laminar
Selecting laminar stress model Stokes
No MRF models present

No finite volume options present
forceCoeffs forces_recon write:
    Coefficient	Total	Pressure	Viscous	Internal
    Cd:	3.2258327	2.5165663	0.70926644	0
    Cd(f):	1.6129164	1.2582831	0.35463322	0
    Cd(r):	1.6129164	1.2582831	0.35463322	0
    Cl:	0.43427211	0.48720582	-0.052933718	0
    Cl(f):	0.006537193	0.24360291	-0.23706572	0
    Cl(r):	0.42773491	0.24360291	0.184132	0
    CmPitch:	-0.21059886	2.2638233e-10	-0.21059886	0
    CmRoll:	1.8378913e-16	1.8993024e-16	-6.1411065e-18	0
    CmYaw:	-2.4261177e-17	-1.9413176e-17	-4.8480012e-18	0
    Cs:	-3.1800537e-16	-3.1807795e-16	7.257906e-20	0
    Cs(f):	-1.8326386e-16	-1.7845215e-16	-4.8117117e-18	0
    Cs(r):	-1.3474151e-16	-1.396258e-16	4.8842907e-18	0

    writing force and moment coefficient files.


Time = 4.33
Reading field p

Reading field U

Reading/calculating face flux field phi

Selecting incompressible transport model Newtonian
Selecting turbulence model type laminar
Selecting laminar stress model Stokes
No MRF models present

No finite volume options present
forceCoeffs forces_recon write:
    Coefficient	Total	Pressure	Viscous	Internal
    Cd:	3.2162026	2.5094312	0.70677141	0
    Cd(f):	1.6081013	1.2547156	0.35338571	0
    Cd(r):	1.6081013	1.2547156	0.35338571	0
    Cl:	0.65313959	0.68432257	-0.031182982	0
    Cl(f):	0.19316637	0.34216129	-0.14899491	0
    Cl(r):	0.45997321	0.34216128	0.11781193	0
    CmPitch:	-0.13340342	4.5693575e-10	-0.13340342	0
    CmRoll:	1.9204606e-16	1.9803338e-16	-5.9873258e-18	0
    CmYaw:	-2.2042639e-17	-1.7211773e-17	-4.8308663e-18	0
    Cs:	-3.4451464e-16	-3.4485953e-16	3.4489669e-19	0
    Cs(f):	-1.9429996e-16	-1.8964154e-16	-4.658418e-18	0
    Cs(r):	-1.5021468e-16	-1.5521799e-16	5.0033147e-18	0

    writing force and moment coefficient files.


Time = 4.34
Reading field p

Reading field U

Reading/calculating face flux field phi

Selecting incompressible transport model Newtonian
Selecting turbulence model type laminar
Selecting laminar stress model Stokes
No MRF models present

No finite volume options present
forceCoeffs forces_recon write:
    Coefficient	Total	Pressure	Viscous	Internal
    Cd:	3.2007387	2.5034212	0.69731756	0
    Cd(f):	1.6003694	1.2517106	0.34865878	0
    Cd(r):	1.6003694	1.2517106	0.34865878	0
    Cl:	0.86597897	0.87368074	-0.0077017626	0
    Cl(f):	0.62224074	0.43684037	0.18540037	0
    Cl(r):	0.24373824	0.43684037	-0.19310213	0
    CmPitch:	0.18925125	7.0322859e-10	0.18925125	0
    CmRoll:	1.9993718e-16	2.0561465e-16	-5.6774712e-18	0
    CmYaw:	-2.0031686e-17	-1.4934143e-17	-5.0975438e-18	0
    Cs:	-3.6908434e-16	-3.6978542e-16	7.0108158e-19	0
    Cs(f):	-2.0457386e-16	-1.9982685e-16	-4.747003e-18	0
    Cs(r):	-1.6451048e-16	-1.6995857e-16	5.4480846e-18	0

    writing force and moment coefficient files.


Time = 4.35
Reading field p

Reading field U

Reading/calculating face flux field phi

Selecting incompressible transport model Newtonian
Selecting turbulence model type laminar
Selecting laminar stress model Stokes
No MRF models present

No finite volume options present
forceCoeffs forces_recon write:
    Coefficient	Total	Pressure	Viscous	Internal
    Cd:	3.2043159	2.4997867	0.70452922	0
    Cd(f):	1.602158	1.2498933	0.35226461	0
    Cd(r):	1.602158	1.2498933	0.35226461	0
    Cl:	1.0657592	1.0489112	0.016848057	0
    Cl(f):	0.44751729	0.52445559	-0.076938302	0
    Cl(r):	0.61824195	0.52445559	0.093786359	0
    CmPitch:	-0.08536233	9.6174416e-10	-0.085362331	0
    CmRoll:	2.0660449e-16	2.1232813e-16	-5.7236452e-18	0
    CmYaw:	-1.7379942e-17	-1.2827516e-17	-4.552426e-18	0
    Cs:	-3.9101815e-16	-3.9216591e-16	1.1477599e-18	0
    Cs(f):	-2.1288902e-16	-2.0891047e-16	-3.9785461e-18	0
    Cs(r):	-1.7812914e-16	-1.8325544e-16	5.126306e-18	0

    writing force and moment coefficient files.


Time = 4.36
Reading field p

Reading field U

Reading/calculating face flux field phi

Selecting incompressible transport model Newtonian
Selecting turbulence model type laminar
Selecting laminar stress model Stokes
No MRF models present

No finite volume options present
forceCoeffs forces_recon write:
    Coefficient	Total	Pressure	Viscous	Internal
    Cd:	3.1830151	2.4994469	0.68356819	0
    Cd(f):	1.5915075	1.2497234	0.3417841	0
    Cd(r):	1.5915075	1.2497234	0.3417841	0
    Cl:	1.245762	1.204037	0.041724981	0
    Cl(f):	1.2721753	0.60201851	0.67015677	0
    Cl(r):	-0.026413289	0.6020185	-0.62843179	0
    CmPitch:	0.64929428	1.2238403e-09	0.64929428	0
    CmRoll:	2.1275467e-16	2.179191e-16	-5.1644301e-18	0
    CmYaw:	-1.6384096e-17	-1.1107003e-17	-5.2770933e-18	0
    Cs:	-4.0976493e-16	-4.1145285e-16	1.6879245e-18	0
    Cs(f):	-2.2126656e-16	-2.1683343e-16	-4.433131e-18	0
    Cs(r):	-1.8849837e-16	-1.9461942e-16	6.1210556e-18	0

    writing force and moment coefficient files.


Time = 4.37
Reading field p

Reading field U

Reading/calculating face flux field phi

Selecting incompressible transport model Newtonian
Selecting turbulence model type laminar
Selecting laminar stress model Stokes
No MRF models present

No finite volume options present
forceCoeffs forces_recon write:
    Coefficient	Total	Pressure	Viscous	Internal
    Cd:	3.1967086	2.5027657	0.69394297	0
    Cd(f):	1.5983543	1.2513828	0.34697149	0
    Cd(r):	1.5983543	1.2513828	0.34697149	0
    Cl:	1.3994115	1.3332945	0.066117001	0
    Cl(f):	0.96764072	0.66664726	0.30099346	0
    Cl(r):	0.4317708	0.66664726	-0.23487645	0
    CmPitch:	0.26793496	1.4749232e-09	0.26793496	0
    CmRoll:	2.1692715e-16	2.222117e-16	-5.2845507e-18	0
    CmYaw:	-1.445755e-17	-9.9371967e-18	-4.5203533e-18	0
    Cs:	-4.2488044e-16	-4.2719484e-16	2.3143974e-18	0
    Cs(f):	-2.2689777e-16	-2.2353462e-16	-3.3631546e-18	0
    Cs(r):	-1.9798267e-16	-2.0366022e-16	5.6775519e-18	0

    writing force and moment coefficient files.


Time = 4.38
Reading field p

Reading field U

Reading/calculating face flux field phi

Selecting incompressible transport model Newtonian
Selecting turbulence model type laminar
Selecting laminar stress model Stokes
No MRF models present

No finite volume options present
forceCoeffs forces_recon write:
    Coefficient	Total	Pressure	Viscous	Internal
    Cd:	3.2040247	2.5094484	0.69457636	0
    Cd(f):	1.6020124	1.2547242	0.34728818	0
    Cd(r):	1.6020124	1.2547242	0.34728818	0
    Cl:	1.5210947	1.4319179	0.089176787	0
    Cl(f):	1.0034381	0.71595894	0.28747918	0
    Cl(r):	0.51765655	0.71595894	-0.19830239	0
    CmPitch:	0.24289079	1.6981147e-09	0.24289079	0
    CmRoll:	2.199346e-16	2.251374e-16	-5.2028007e-18	0
    CmYaw:	-1.3600529e-17	-9.3990995e-18	-4.2014295e-18	0
    Cs:	-4.3607502e-16	-4.3908172e-16	3.0066986e-18	0
    Cs(f):	-2.3163804e-16	-2.2893996e-16	-2.6980802e-18	0
    Cs(r):	-2.0443698e-16	-2.1014176e-16	5.7047788e-18	0

    writing force and moment coefficient files.


Time = 4.39
Reading field p

Reading field U

Reading/calculating face flux field phi

Selecting incompressible transport model Newtonian
Selecting turbulence model type laminar
Selecting laminar stress model Stokes
No MRF models present

No finite volume options present
forceCoeffs forces_recon write:
    Coefficient	Total	Pressure	Viscous	Internal
    Cd:	3.2134191	2.5185724	0.6948467	0
    Cd(f):	1.6067096	1.2592862	0.34742335	0
    Cd(r):	1.6067096	1.2592862	0.34742335	0
    Cl:	1.6060378	1.4959494	0.11008844	0
    Cl(f):	1.0437396	0.7479747	0.29576492	0
    Cl(r):	0.56229821	0.74797469	-0.18567648	0
    CmPitch:	0.2407207	1.8780391e-09	0.2407207	0
    CmRoll:	2.2156072e-16	2.2668409e-16	-5.1233742e-18	0
    CmYaw:	-1.3372728e-17	-9.4688516e-18	-3.9038767e-18	0
    Cs:	-4.4305612e-16	-4.4678956e-16	3.7334457e-18	0
    Cs(f):	-2.3490079e-16	-2.3286363e-16	-2.0371539e-18	0
    Cs(r):	-2.0815533e-16	-2.1392593e-16	5.7705996e-18	0

    writing force and moment coefficient files.


Time = 4.4
Reading field p

Reading field U

Reading/calculating face flux field phi

Selecting incompressible transport model Newtonian
Selecting turbulence model type laminar
Selecting laminar stress model Stokes
No MRF models present

No finite volume options present
forceCoeffs forces_recon write:
    Coefficient	Total	Pressure	Viscous	Internal
    Cd:	3.2228662	2.5287215	0.6941447	0
    Cd(f):	1.6114331	1.2643607	0.34707235	0
    Cd(r):	1.6114331	1.2643607	0.34707235	0
    Cl:	1.6507263	1.5225958	0.12813048	0
    Cl(f):	1.1084551	0.76129789	0.34715716	0
    Cl(r):	0.54227121	0.76129789	-0.21902668	0
    CmPitch:	0.28309192	2.0043742e-09	0.28309192	0
    CmRoll:	2.2185216e-16	2.2688728e-16	-5.0351198e-18	0
    CmYaw:	-1.3682239e-17	-1.000821e-17	-3.6740286e-18	0
    Cs:	-4.4549184e-16	-4.4994974e-16	4.4578995e-18	0
    Cs(f):	-2.3642816e-16	-2.3498308e-16	-1.4450789e-18	0
    Cs(r):	-2.0906368e-16	-2.1496666e-16	5.9029784e-18	0

    writing force and moment coefficient files.


Time = 4.41
Reading field p

Reading field U

Reading/calculating face flux field phi

Selecting incompressible transport model Newtonian
Selecting turbulence model type laminar
Selecting laminar stress model Stokes
No MRF models present

No finite volume options present
forceCoeffs forces_recon write:
    Coefficient	Total	Pressure	Viscous	Internal
    Cd:	3.277499	2.5664189	0.71108015	0
    Cd(f):	1.6387495	1.2832094	0.35554008	0
    Cd(r):	1.6387495	1.2832094	0.35554008	0
    Cl:	1.0670891	0.93071612	0.136373	0
    Cl(f):	0.26430318	0.46535806	-0.20105488	0
    Cl(r):	0.80278594	0.46535806	0.33742788	0
    CmPitch:	-0.26924138	1.2123219e-09	-0.26924138	0
    CmRoll:	1.7726525e-16	1.8278549e-16	-5.5202417e-18	0
    CmYaw:	-2.7667409e-17	-2.3821805e-17	-3.8456041e-18	0
    Cs:	-3.5621829e-16	-3.6089704e-16	4.6787485e-18	0
    Cs(f):	-2.0577656e-16	-2.0427033e-16	-1.5062299e-18	0
    Cs(r):	-1.5044174e-16	-1.5662672e-16	6.1849784e-18	0

    writing force and moment coefficient files.


Time = 4.42
Reading field p

Reading field U

Reading/calculating face flux field phi

Selecting incompressible transport model Newtonian
Selecting turbulence model type laminar
Selecting laminar stress model Stokes
No MRF models present

No finite volume options present
forceCoeffs forces_recon write:
    Coefficient	Total	Pressure	Viscous	Internal
    Cd:	3.284452	2.5759353	0.7085167	0
    Cd(f):	1.642226	1.2879676	0.35425835	0
    Cd(r):	1.642226	1.2879676	0.35425835	0
    Cl:	0.99173539	0.85036504	0.14137035	0
    Cl(f):	0.32892885	0.42518252	-0.096253675	0
    Cl(r):	0.66280655	0.42518252	0.23762403	0
    CmPitch:	-0.16693885	1.4874277e-09	-0.16693885	0
    CmRoll:	1.742619e-16	1.7965216e-16	-5.3902552e-18	0
    CmYaw:	-2.7151688e-17	-2.3647642e-17	-3.5040452e-18	0
    Cs:	-3.430088e-16	-3.4825941e-16	5.2506143e-18	0
    Cs(f):	-1.9865609e-16	-1.9777735e-16	-8.7873807e-19	0
    Cs(r):	-1.4435271e-16	-1.5048206e-16	6.1293524e-18	0

    writing force and moment coefficient files.


Time = 4.43
Reading field p

Reading field U

Reading/calculating face flux field phi

Selecting incompressible transport model Newtonian
Selecting turbulence model type laminar
Selecting laminar stress model Stokes
No MRF models present

No finite volume options present
forceCoeffs forces_recon write:
    Coefficient	Total	Pressure	Viscous	Internal
    Cd:	3.285996	2.581241	0.70475506	0
    Cd(f):	1.642998	1.2906205	0.35237753	0
    Cd(r):	1.642998	1.2906205	0.35237753	0
    Cl:	0.88238725	0.74204439	0.14034286	0
    Cl(f):	0.41362066	0.3710222	0.042598468	0
    Cl(r):	0.46876658	0.37102219	0.097744391	0
    CmPitch:	-0.02757296	1.7592406e-09	-0.027572962	0
    CmRoll:	1.7149413e-16	1.7674744e-16	-5.2533105e-18	0
    CmYaw:	-2.5635367e-17	-2.2458725e-17	-3.1766427e-18	0
    Cs:	-3.2512861e-16	-3.3094858e-16	5.8199718e-18	0
    Cs(f):	-1.8819967e-16	-1.8793302e-16	-2.6665676e-19	0
    Cs(r):	-1.3692894e-16	-1.4301557e-16	6.0866286e-18	0

    writing force and moment coefficient files.


Time = 4.44
Reading field p

Reading field U

Reading/calculating face flux field phi

Selecting incompressible transport model Newtonian
Selecting turbulence model type laminar
Selecting laminar stress model Stokes
No MRF models present

No finite volume options present
forceCoeffs forces_recon write:
    Coefficient	Total	Pressure	Viscous	Internal
    Cd:	3.2961206	2.5812088	0.71491176	0
    Cd(f):	1.6480603	1.2906044	0.35745588	0
    Cd(r):	1.6480603	1.2906044	0.35745588	0
    Cl:	0.74316217	0.60976433	0.13339783	0
    Cl(f):	-0.019238653	0.30488217	-0.32412082	0
    Cl(r):	0.76240082	0.30488217	0.45751865	0
    CmPitch:	-0.39081974	1.9890675e-09	-0.39081974	0
    CmRoll:	1.6887701e-16	1.7431659e-16	-5.4395774e-18	0
    CmYaw:	-2.2404229e-17	-2.020029e-17	-2.2039392e-18	0
    Cs:	-3.0318307e-16	-3.0955176e-16	6.3686892e-18	0
    Cs(f):	-1.7399577e-16	-1.7497617e-16	9.8040544e-19	0
    Cs(r):	-1.2918731e-16	-1.3457559e-16	5.3882838e-18	0

    writing force and moment coefficient files.


Time = 4.45
Reading field p

Reading field U

Reading/calculating face flux field phi

Selecting incompressible transport model Newtonian
Selecting turbulence model type laminar
Selecting laminar stress model Stokes
No MRF models present

No finite volume options present
forceCoeffs forces_recon write:
    Coefficient	Total	Pressure	Viscous	Internal
    Cd:	3.2900009	2.5756495	0.71435146	0
    Cd(f):	1.6450005	1.2878247	0.35717573	0
    Cd(r):	1.6450005	1.2878247	0.35717573	0
    Cl:	0.5787412	0.45772989	0.12101131	0
    Cl(f):	-0.084897958	0.22886495	-0.3137629	0
    Cl(r):	0.66363916	0.22886494	0.43477422	0
    CmPitch:	-0.37426856	2.1354284e-09	-0.37426856	0
    CmRoll:	1.6696997e-16	1.7239284e-16	-5.4228723e-18	0
    CmYaw:	-1.8796168e-17	-1.7017524e-17	-1.7786441e-18	0
    Cs:	-2.7795289e-16	-2.8481265e-16	6.8597686e-18	0
    Cs(f):	-1.5777261e-16	-1.5942385e-16	1.6512402e-18	0
    Cs(r):	-1.2018027e-16	-1.253888e-16	5.2085284e-18	0

    writing force and moment coefficient files.


Time = 4.46
Reading field p

Reading field U

Reading/calculating face flux field phi

Selecting incompressible transport model Newtonian
Selecting turbulence model type laminar
Selecting laminar stress model Stokes
No MRF models present

No finite volume options present
forceCoeffs forces_recon write:
    Coefficient	Total	Pressure	Viscous	Internal
    Cd:	3.2667191	2.5654621	0.70125702	0
    Cd(f):	1.6333595	1.282731	0.35062851	0
    Cd(r):	1.6333595	1.282731	0.35062851	0
    Cl:	0.39443384	0.29046124	0.1039726	0
    Cl(f):	0.28598731	0.14523062	0.14075668	0
    Cl(r):	0.10844653	0.14523062	-0.036784085	0
    CmPitch:	0.088770385	2.1639295e-09	0.088770383	0
    CmRoll:	1.6565737e-16	1.7082414e-16	-5.1667718e-18	0
    CmYaw:	-1.526891e-17	-1.3233797e-17	-2.0351136e-18	0
    Cs:	-2.5037453e-16	-2.5762148e-16	7.246946e-18	0
    Cs(f):	-1.4045618e-16	-1.4204453e-16	1.5883594e-18	0
    Cs(r):	-1.0991836e-16	-1.1557694e-16	5.6585866e-18	0

    writing force and moment coefficient files.


Time = 4.47
Reading field p

Reading field U

Reading/calculating face flux field phi

Selecting incompressible transport model Newtonian
Selecting turbulence model type laminar
Selecting laminar stress model Stokes
No MRF models present

No finite volume options present
forceCoeffs forces_recon write:
    Coefficient	Total	Pressure	Viscous	Internal
    Cd:	3.2405903	2.5524198	0.68817044	0
    Cd(f):	1.6202951	1.2762099	0.34408522	0
    Cd(r):	1.6202951	1.2762099	0.34408522	0
    Cl:	0.19618744	0.11292519	0.083262251	0
    Cl(f):	0.64974208	0.056462595	0.59327949	0
    Cl(r):	-0.45355465	0.056462591	-0.51001724	0
    CmPitch:	0.55164837	2.0553455e-09	0.55164836	0
    CmRoll:	1.6440667e-16	1.6934879e-16	-4.942119e-18	0
    CmYaw:	-1.1719284e-17	-9.287932e-18	-2.4313518e-18	0
    Cs:	-2.2151912e-16	-2.2900635e-16	7.4872235e-18	0
    Cs(f):	-1.2247885e-16	-1.2379111e-16	1.3122599e-18	0
    Cs(r):	-9.9040278e-17	-1.0521524e-16	6.1749636e-18	0

    writing force and moment coefficient files.


Time = 4.48
Reading field p

Reading field U

Reading/calculating face flux field phi

Selecting incompressible transport model Newtonian
Selecting turbulence model type laminar
Selecting laminar stress model Stokes
No MRF models present

No finite volume options present
forceCoeffs forces_recon write:
    Coefficient	Total	Pressure	Viscous	Internal
    Cd:	3.2539285	2.5387671	0.71516139	0
    Cd(f):	1.6269642	1.2693835	0.3575807	0
    Cd(r):	1.6269642	1.2693835	0.3575807	0
    Cl:	-0.0095881701	-0.069533694	0.059945523	0
    Cl(f):	-0.42129846	-0.034766845	-0.38653162	0
    Cl(r):	0.41171029	-0.034766849	0.44647714	0
    CmPitch:	-0.41650438	1.8075319e-09	-0.41650438	0
    CmRoll:	1.6206153e-16	1.6767159e-16	-5.6100545e-18	0
    CmYaw:	-6.8046966e-18	-5.6708564e-18	-1.1338402e-18	0
    Cs:	-1.9256552e-16	-2.0011377e-16	7.5482548e-18	0
    Cs(f):	-1.0308746e-16	-1.0572774e-16	2.6402872e-18	0
    Cs(r):	-8.9478062e-17	-9.438603e-17	4.9079676e-18	0

    writing force and moment coefficient files.


Time = 4.49
Reading field p

Reading field U

Reading/calculating face flux field phi

Selecting incompressible transport model Newtonian
Selecting turbulence model type laminar
Selecting laminar stress model Stokes
No MRF models present

No finite volume options present
forceCoeffs forces_recon write:
    Coefficient	Total	Pressure	Viscous	Internal
    Cd:	3.2246154	2.5267154	0.69790003	0
    Cd(f):	1.6123077	1.2633577	0.34895001	0
    Cd(r):	1.6123077	1.2633577	0.34895001	0
    Cl:	-0.21643765	-0.25151631	0.035078666	0
    Cl(f):	0.094563159	-0.12575816	0.22032131	0
    Cl(r):	-0.31100081	-0.12575816	-0.18524265	0
    CmPitch:	0.20278198	1.4333131e-09	0.20278198	0
    CmRoll:	1.6015789e-16	1.6550944e-16	-5.3515508e-18	0
    CmYaw:	-4.9265248e-18	-2.8641276e-18	-2.0623972e-18	0
    Cs:	-1.6472444e-16	-1.7213419e-16	7.409748e-18	0
    Cs(f):	-8.7288746e-17	-8.8931223e-17	1.6424768e-18	0
    Cs(r):	-7.7435696e-17	-8.3202967e-17	5.7672712e-18	0

    writing force and moment coefficient files.


Time = 4.5
Reading field p

Reading field U

Reading/calculating face flux field phi

Selecting incompressible transport model Newtonian
Selecting turbulence model type laminar
Selecting laminar stress model Stokes
No MRF models present

No finite volume options present
forceCoeffs forces_recon write:
    Coefficient	Total	Pressure	Viscous	Internal
    Cd:	3.2253293	2.5181228	0.70720652	0
    Cd(f):	1.6126646	1.2590614	0.35360326	0
    Cd(r):	1.6126646	1.2590614	0.35360326	0
    Cl:	-0.41825108	-0.42797274	0.0097216518	0
    Cl(f):	-0.3308218	-0.21398637	-0.11683543	0
    Cl(r):	-0.08742929	-0.21398637	0.12655708	0
    CmPitch:	-0.12169625	9.5469575e-10	-0.12169625	0
    CmRoll:	1.5690956e-16	1.6259485e-16	-5.6852962e-18	0
    CmYaw:	-3.2306658e-18	-1.299129e-18	-1.9315368e-18	0
    Cs:	-1.3912834e-16	-1.4618696e-16	7.0586142e-18	0
    Cs(f):	-7.2794836e-17	-7.4392607e-17	1.5977703e-18	0
    Cs(r):	-6.6333505e-17	-7.1794349e-17	5.4608439e-18	0

    writing force and moment coefficient files.


Time = 4.51
Reading field p

Reading field U

Reading/calculating face flux field phi

Selecting incompressible transport model Newtonian
Selecting turbulence model type laminar
Selecting laminar stress model Stokes
No MRF models present

No finite volume options present
forceCoeffs forces_recon write:
    Coefficient	Total	Pressure	Viscous	Internal
    Cd:	3.2170623	2.5143025	0.70275974	0
    Cd(f):	1.6085311	1.2571513	0.35137987	0
    Cd(r):	1.6085311	1.2571513	0.35137987	0
    Cl:	-0.60952061	-0.59434995	-0.015170669	0
    Cl(f):	-0.25172066	-0.29717497	0.045454313	0
    Cl(r):	-0.35779996	-0.29717497	-0.060624982	0
    CmPitch:	0.053039648	4.043191e-10	0.053039648	0
    CmRoll:	1.5298217e-16	1.5871742e-16	-5.735241e-18	0
    CmYaw:	-3.8759132e-18	-1.2800405e-18	-2.5958726e-18	0
    Cs:	-1.1669291e-16	-1.2318411e-16	6.491203e-18	0
    Cs(f):	-6.2222367e-17	-6.2872096e-17	6.4972887e-19	0
    Cs(r):	-5.4470541e-17	-6.0312015e-17	5.8414741e-18	0

    writing force and moment coefficient files.


Time = 4.52
Reading field p

Reading field U

Reading/calculating face flux field phi

Selecting incompressible transport model Newtonian
Selecting turbulence model type laminar
Selecting laminar stress model Stokes
No MRF models present

No finite volume options present
forceCoeffs forces_recon write:
    Coefficient	Total	Pressure	Viscous	Internal
    Cd:	3.2283651	2.5159483	0.71241676	0
    Cd(f):	1.6141825	1.2579742	0.35620838	0
    Cd(r):	1.6141825	1.2579742	0.35620838	0
    Cl:	-0.78516242	-0.74642578	-0.038736638	0
    Cl(f):	-0.66217056	-0.37321289	-0.28895767	0
    Cl(r):	-0.12299186	-0.37321289	0.25022103	0
    CmPitch:	-0.26958935	-1.7725491e-10	-0.26958935	0
    CmRoll:	1.4767823e-16	1.5376975e-16	-6.0915237e-18	0
    CmYaw:	-5.6668515e-18	-2.9308794e-18	-2.735972e-18	0
    Cs:	-9.8052656e-17	-1.0376942e-16	5.7167644e-18	0
    Cs(f):	-5.469318e-17	-5.481559e-17	1.2241017e-19	0
    Cs(r):	-4.3359477e-17	-4.8953831e-17	5.5943542e-18	0

    writing force and moment coefficient files.


Time = 4.53
Reading field p

Reading field U

Reading/calculating face flux field phi

Selecting incompressible transport model Newtonian
Selecting turbulence model type laminar
Selecting laminar stress model Stokes
No MRF models present

No finite volume options present
forceCoeffs forces_recon write:
    Coefficient	Total	Pressure	Viscous	Internal
    Cd:	3.2152403	2.5230554	0.69218495	0
    Cd(f):	1.6076202	1.2615277	0.34609247	0
    Cd(r):	1.6076202	1.2615277	0.34609247	0
    Cl:	-0.94033074	-0.8800208	-0.060309936	0
    Cl(f):	0.012582265	-0.4400104	0.45259267	0
    Cl(r):	-0.952913	-0.4400104	-0.5129026	0
    CmPitch:	0.48274763	-7.4121851e-10	0.48274763	0
    CmRoll:	1.4203637e-16	1.4783315e-16	-5.7967806e-18	0
    CmYaw:	-1.0485686e-17	-6.1375553e-18	-4.3481309e-18	0
    Cs:	-8.3551053e-17	-8.8317378e-17	4.766325e-18	0
    Cs(f):	-5.2261213e-17	-5.0296244e-17	-1.9649684e-18	0
    Cs(r):	-3.128984e-17	-3.8021134e-17	6.7312934e-18	0

    writing force and moment coefficient files.


Time = 4.54
Reading field p

Reading field U

Reading/calculating face flux field phi

Selecting incompressible transport model Newtonian
Selecting turbulence model type laminar
Selecting laminar stress model Stokes
No MRF models present

No finite volume options present
forceCoeffs forces_recon write:
    Coefficient	Total	Pressure	Viscous	Internal
    Cd:	3.242067	2.5348048	0.70726222	0
    Cd(f):	1.6210335	1.2674024	0.35363111	0
    Cd(r):	1.6210335	1.2674024	0.35363111	0
    Cl:	-1.0702593	-0.99084874	-0.079410538	0
    Cl(f):	-0.55881931	-0.49542437	-0.063394937	0
    Cl(r):	-0.51143997	-0.49542437	-0.0160156	0
    CmPitch:	-0.02368967	-1.2380002e-09	-0.023689669	0
    CmRoll:	1.3497341e-16	1.4121827e-16	-6.2448623e-18	0
    CmYaw:	-1.4908492e-17	-1.0554408e-17	-4.3540835e-18	0
    Cs:	-7.3319922e-17	-7.7014073e-17	3.6941507e-18	0
    Cs(f):	-5.1568453e-17	-4.9061444e-17	-2.5070082e-18	0
    Cs(r):	-2.1751469e-17	-2.7952628e-17	6.2011589e-18	0

    writing force and moment coefficient files.


Time = 4.55
Reading field p

Reading field U

Reading/calculating face flux field phi

Selecting incompressible transport model Newtonian
Selecting turbulence model type laminar
Selecting laminar stress model Stokes
No MRF models present

No finite volume options present
forceCoeffs forces_recon write:
    Coefficient	Total	Pressure	Viscous	Internal
    Cd:	3.2527268	2.5495173	0.70320948	0
    Cd(f):	1.6263634	1.2747587	0.35160474	0
    Cd(r):	1.6263634	1.2747587	0.35160474	0
    Cl:	-1.1705179	-1.0747262	-0.095791716	0
    Cl(f):	-0.42927964	-0.53736308	0.10808344	0
    Cl(r):	-0.74123824	-0.53736308	-0.20387516	0
    CmPitch:	0.1559793	-1.6240297e-09	0.1559793	0
    CmRoll:	1.2820217e-16	1.3445837e-16	-6.2562016e-18	0
    CmYaw:	-2.0866599e-17	-1.5648574e-17	-5.2180248e-18	0
    Cs:	-6.7360066e-17	-6.9933461e-17	2.5733956e-18	0
    Cs(f):	-5.4546632e-17	-5.0615305e-17	-3.931327e-18	0
    Cs(r):	-1.2813434e-17	-1.9318156e-17	6.5047226e-18	0

    writing force and moment coefficient files.


Time = 4.56
Reading field p

Reading field U

Reading/calculating face flux field phi

Selecting incompressible transport model Newtonian
Selecting turbulence model type laminar
Selecting laminar stress model Stokes
No MRF models present

No finite volume options present
forceCoeffs forces_recon write:
    Coefficient	Total	Pressure	Viscous	Internal
    Cd:	3.2741882	2.5648462	0.709342	0
    Cd(f):	1.6370941	1.2824231	0.354671	0
    Cd(r):	1.6370941	1.2824231	0.354671	0
    Cl:	-1.2373843	-1.1280655	-0.10931884	0
    Cl(f):	-0.64777557	-0.56403273	-0.083742845	0
    Cl(r):	-0.58960872	-0.56403273	-0.025575994	0
    CmPitch:	-0.029083427	-1.8732163e-09	-0.029083425	0
    CmRoll:	1.217458e-16	1.2820298e-16	-6.4571749e-18	0
    CmYaw:	-2.6347995e-17	-2.0818039e-17	-5.5299559e-18	0
    Cs:	-6.5626886e-17	-6.7107609e-17	1.4807232e-18	0
    Cs(f):	-5.9161438e-17	-5.4371843e-17	-4.7895943e-18	0
    Cs(r):	-6.4654481e-18	-1.2735766e-17	6.2703175e-18	0

    writing force and moment coefficient files.


Time = 4.57
Reading field p

Reading field U

Reading/calculating face flux field phi

Selecting incompressible transport model Newtonian
Selecting turbulence model type laminar
Selecting laminar stress model Stokes
No MRF models present

No finite volume options present
forceCoeffs forces_recon write:
    Coefficient	Total	Pressure	Viscous	Internal
    Cd:	3.2876112	2.5781873	0.70942394	0
    Cd(f):	1.6438056	1.2890936	0.35471197	0
    Cd(r):	1.6438056	1.2890936	0.35471197	0
    Cl:	-1.2682747	-1.1483394	-0.11993536	0
    Cl(f):	-0.63500673	-0.57416968	-0.060837049	0
    Cl(r):	-0.63326799	-0.57416968	-0.059098311	0
    CmPitch:	-0.00086937131	-1.9787431e-09	-0.00086936933	0
    CmRoll:	1.1659805e-16	1.2309495e-16	-6.4969017e-18	0
    CmYaw:	-3.1501394e-17	-2.5493447e-17	-6.0079467e-18	0
    Cs:	-6.803913e-17	-6.8521406e-17	4.8227547e-19	0
    Cs(f):	-6.5520959e-17	-5.975415e-17	-5.7668089e-18	0
    Cs(r):	-2.5181713e-18	-8.7672557e-18	6.2490844e-18	0

    writing force and moment coefficient files.


Time = 4.58
Reading field p

Reading field U

Reading/calculating face flux field phi

Selecting incompressible transport model Newtonian
Selecting turbulence model type laminar
Selecting laminar stress model Stokes
No MRF models present

No finite volume options present
forceCoeffs forces_recon write:
    Coefficient	Total	Pressure	Viscous	Internal
    Cd:	3.3056919	2.587318	0.71837388	0
    Cd(f):	1.6528459	1.293659	0.35918694	0
    Cd(r):	1.6528459	1.293659	0.35918694	0
    Cl:	-1.2618441	-1.1342796	-0.12756444	0
    Cl(f):	-0.92645411	-0.56713981	-0.3593143	0
    Cl(r):	-0.33538994	-0.5671398	0.23174986	0
    CmPitch:	-0.29553208	-1.9515708e-09	-0.29553208	0
    CmRoll:	1.1295837e-16	1.196562e-16	-6.6978376e-18	0
    CmYaw:	-3.5177938e-17	-2.9231941e-17	-5.9459966e-18	0
    Cs:	-7.4481844e-17	-7.4106988e-17	-3.7485629e-19	0
    Cs(f):	-7.241886e-17	-6.6285435e-17	-6.1334248e-18	0
    Cs(r):	-2.062984e-18	-7.8215525e-18	5.7585685e-18	0

    writing force and moment coefficient files.


Time = 4.59
Reading field p

Reading field U

Reading/calculating face flux field phi

Selecting incompressible transport model Newtonian
Selecting turbulence model type laminar
Selecting laminar stress model Stokes
No MRF models present

No finite volume options present
forceCoeffs forces_recon write:
    Coefficient	Total	Pressure	Viscous	Internal
    Cd:	3.3103549	2.5909064	0.71944856	0
    Cd(f):	1.6551775	1.2954532	0.35972428	0
    Cd(r):	1.6551775	1.2954532	0.35972428	0
    Cl:	-1.217807	-1.0856979	-0.13210909	0
    Cl(f):	-0.92548432	-0.54284896	-0.38263537	0
    Cl(r):	-0.29232268	-0.54284895	0.25052628	0
    CmPitch:	-0.31658082	-1.8120094e-09	-0.31658082	0
    CmRoll:	1.1153782e-16	1.1824063e-16	-6.7028082e-18	0
    CmYaw:	-3.7869283e-17	-3.1748183e-17	-6.1210992e-18	0
    Cs:	-8.4788485e-17	-8.3727595e-17	-1.0608899e-18	0
    Cs(f):	-8.0263525e-17	-7.3611981e-17	-6.6515441e-18	0
    Cs(r):	-4.5249599e-18	-1.0115614e-17	5.5906542e-18	0

    writing force and moment coefficient files.


Time = 4.6
Reading field p

Reading field U

Reading/calculating face flux field phi

Selecting incompressible transport model Newtonian
Selecting turbulence model type laminar
Selecting laminar stress model Stokes
No MRF models present

No finite volume options present
forceCoeffs forces_recon write:
    Coefficient	Total	Pressure	Viscous	Internal
    Cd:	3.2915851	2.5887793	0.70280575	0
    Cd(f):	1.6457925	1.2943897	0.35140288	0
    Cd(r):	1.6457925	1.2943897	0.35140288	0
    Cl:	-1.1367206	-1.0032724	-0.13344821	0
    Cl(f):	-0.28184924	-0.50163621	0.21978698	0
    Cl(r):	-0.8548714	-0.50163621	-0.35323518	0
    CmPitch:	0.28651108	-1.5835725e-09	0.28651108	0
    CmRoll:	1.127278e-16	1.190322e-16	-6.3044001e-18	0
    CmYaw:	-3.991989e-17	-3.292067e-17	-6.9992195e-18	0
    Cs:	-9.8746151e-17	-9.7189268e-17	-1.5568833e-18	0
    Cs(f):	-8.9292966e-17	-8.1515304e-17	-7.7776612e-18	0
    Cs(r):	-9.4531859e-18	-1.5673964e-17	6.2207778e-18	0

    writing force and moment coefficient files.


Time = 4.61
Reading field p

Reading field U

Reading/calculating face flux field phi

Selecting incompressible transport model Newtonian
Selecting turbulence model type laminar
Selecting laminar stress model Stokes
No MRF models present

No finite volume options present
forceCoeffs forces_recon write:
    Coefficient	Total	Pressure	Viscous	Internal
    Cd:	3.291944	2.5818174	0.71012665	0
    Cd(f):	1.645972	1.2909087	0.35506333	0
    Cd(r):	1.645972	1.2909087	0.35506333	0
    Cl:	-1.0199611	-0.88849603	-0.1314651	0
    Cl(f):	-0.48736316	-0.44424802	-0.043115141	0
    Cl(r):	-0.53259797	-0.44424801	-0.088349957	0
    CmPitch:	0.022617407	-1.2895458e-09	0.022617408	0
    CmRoll:	1.1565911e-16	1.2206412e-16	-6.4050123e-18	0
    CmYaw:	-3.9436864e-17	-3.2776611e-17	-6.6602539e-18	0
    Cs:	-1.1610329e-16	-1.1425449e-16	-1.848797e-18	0
    Cs(f):	-9.748851e-17	-8.9903857e-17	-7.5846524e-18	0
    Cs(r):	-1.8614781e-17	-2.4350636e-17	5.7358554e-18	0

    writing force and moment coefficient files.


Time = 4.62
Reading field p

Reading field U

Reading/calculating face flux field phi

Selecting incompressible transport model Newtonian
Selecting turbulence model type laminar
Selecting laminar stress model Stokes
No MRF models present

No finite volume options present
forceCoeffs forces_recon write:
    Coefficient	Total	Pressure	Viscous	Internal
    Cd:	3.268715	2.5715938	0.6971212	0
    Cd(f):	1.6343575	1.2857969	0.3485606	0
    Cd(r):	1.6343575	1.2857969	0.3485606	0
    Cl:	-0.87008682	-0.74400755	-0.12607927	0
    Cl(f):	0.042071809	-0.37200378	0.41407558	0
    Cl(r):	-0.91215863	-0.37200377	-0.54015486	0
    CmPitch:	0.47711522	-9.5346646e-10	0.47711522	0
    CmRoll:	1.2116619e-16	1.2722275e-16	-6.0565591e-18	0
    CmYaw:	-3.8649452e-17	-3.1476503e-17	-7.172949e-18	0
    Cs:	-1.3655344e-16	-1.3462686e-16	-1.9265786e-18	0
    Cs(f):	-1.0692617e-16	-9.8789934e-17	-8.1362383e-18	0
    Cs(r):	-2.9627269e-17	-3.5836929e-17	6.2096597e-18	0

    writing force and moment coefficient files.


Time = 4.63
Reading field p

Reading field U

Reading/calculating face flux field phi

Selecting incompressible transport model Newtonian
Selecting turbulence model type laminar
Selecting laminar stress model Stokes
No MRF models present

No finite volume options present
forceCoeffs forces_recon write:
    Coefficient	Total	Pressure	Viscous	Internal
    Cd:	3.2636837	2.5599317	0.70375199	0
    Cd(f):	1.6318418	1.2799658	0.35187599	0
    Cd(r):	1.6318418	1.2799658	0.35187599	0
    Cl:	-0.6912701	-0.57405922	-0.11721088	0
    Cl(f):	-0.12249884	-0.28702961	0.16453077	0
    Cl(r):	-0.56877125	-0.28702961	-0.28174165	0
    CmPitch:	0.22313621	-6.0261946e-10	0.22313621	0
    CmRoll:	1.2809289e-16	1.3421761e-16	-6.1247212e-18	0
    CmYaw:	-3.6014865e-17	-2.9310319e-17	-6.7045457e-18	0
    Cs:	-1.5969944e-16	-1.5790848e-16	-1.790954e-18	0
    Cs(f):	-1.1586458e-16	-1.0826456e-16	-7.6000227e-18	0
    Cs(r):	-4.3834854e-17	-4.9643923e-17	5.8090687e-18	0

    writing force and moment coefficient files.


Time = 4.64
Reading field p

Reading field U

Reading/calculating face flux field phi

Selecting incompressible transport model Newtonian
Selecting turbulence model type laminar
Selecting laminar stress model Stokes
No MRF models present

No finite volume options present
forceCoeffs forces_recon write:
    Coefficient	Total	Pressure	Viscous	Internal
    Cd:	3.253461	2.5485857	0.70487532	0
    Cd(f):	1.6267305	1.2742928	0.35243766	0
    Cd(r):	1.6267305	1.2742928	0.35243766	0
    Cl:	-0.48955938	-0.38472873	-0.10483066	0
    Cl(f):	-0.081512498	-0.19236436	0.11085187	0
    Cl(r):	-0.40804689	-0.19236436	-0.21568252	0
    CmPitch:	0.16326719	-2.6512068e-10	0.16326719	0
    CmRoll:	1.3651138e-16	1.425841e-16	-6.0727156e-18	0
    CmYaw:	-3.3104423e-17	-2.6659032e-17	-6.4453901e-18	0
    Cs:	-1.8499532e-16	-1.8353813e-16	-1.4571904e-18	0
    Cs(f):	-1.2560208e-16	-1.184281e-16	-7.1739853e-18	0
    Cs(r):	-5.9393236e-17	-6.5110031e-17	5.7167949e-18	0

    writing force and moment coefficient files.


Time = 4.65
Reading field p

Reading field U

Reading/calculating face flux field phi

Selecting incompressible transport model Newtonian
Selecting turbulence model type laminar
Selecting laminar stress model Stokes
No MRF models present

No finite volume options present
forceCoeffs forces_recon write:
    Coefficient	Total	Pressure	Viscous	Internal
    Cd:	3.2334336	2.5390431	0.69439053	0
    Cd(f):	1.6167168	1.2695215	0.34719527	0
    Cd(r):	1.6167168	1.2695215	0.34719527	0
    Cl:	-0.27266181	-0.18368836	-0.088973457	0
    Cl(f):	0.38280172	-0.091844178	0.4746459	0
    Cl(r):	-0.65546354	-0.091844178	-0.56361936	0
    CmPitch:	0.51913263	3.3789977e-11	0.51913263	0
    CmRoll:	1.4594072e-16	1.517129e-16	-5.7721753e-18	0
    CmYaw:	-3.0647835e-17	-2.3943067e-17	-6.7047679e-18	0
    Cs:	-2.1171276e-16	-2.1075671e-16	-9.5605614e-19	0
    Cs(f):	-1.3650422e-16	-1.2932142e-16	-7.1827959e-18	0
    Cs(r):	-7.5208547e-17	-8.1435287e-17	6.2267398e-18	0

    writing force and moment coefficient files.


Time = 4.66
Reading field p

Reading field U

Reading/calculating face flux field phi

Selecting incompressible transport model Newtonian
Selecting turbulence model type laminar
Selecting laminar stress model Stokes
No MRF models present

No finite volume options present
forceCoeffs forces_recon write:
    Coefficient	Total	Pressure	Viscous	Internal
    Cd:	3.2362201	2.5324405	0.70377963	0
    Cd(f):	1.6181101	1.2662203	0.35188982	0
    Cd(r):	1.6181101	1.2662203	0.35188982	0
    Cl:	-0.04930604	0.020529306	-0.069835346	0
    Cl(f):	0.14310287	0.010264653	0.13283822	0
    Cl(r):	-0.19240891	0.010264653	-0.20267356	0
    CmPitch:	0.16775589	2.7900055e-10	0.16775589	0
    CmRoll:	1.5504508e-16	1.6094662e-16	-5.9015407e-18	0
    CmYaw:	-2.7583551e-17	-2.154012e-17	-6.0434308e-18	0
    Cs:	-2.3895414e-16	-2.3862666e-16	-3.2748425e-19	0
    Cs(f):	-1.4706062e-16	-1.4085345e-16	-6.207173e-18	0
    Cs(r):	-9.189352e-17	-9.7773209e-17	5.8796887e-18	0

    writing force and moment coefficient files.


Time = 4.67
Reading field p

Reading field U

Reading/calculating face flux field phi

Selecting incompressible transport model Newtonian
Selecting turbulence model type laminar
Selecting laminar stress model Stokes
No MRF models present

No finite volume options present
forceCoeffs forces_recon write:
    Coefficient	Total	Pressure	Viscous	Internal
    Cd:	3.235342	2.5294594	0.7058826	0
    Cd(f):	1.617671	1.2647297	0.3529413	0
    Cd(r):	1.617671	1.2647297	0.3529413	0
    Cl:	0.17162997	0.21949161	-0.047861641	0
    Cl(f):	0.16864415	0.10974581	0.058898345	0
    Cl(r):	0.0029858202	0.10974581	-0.10675999	0
    CmPitch:	0.082829166	4.6962352e-10	0.082829166	0
    CmRoll:	1.6382256e-16	1.6969726e-16	-5.874703e-18	0
    CmYaw:	-2.5439403e-17	-1.9709901e-17	-5.7295027e-18	0
    Cs:	-2.657251e-16	-2.6611315e-16	3.8805124e-19	0
    Cs(f):	-1.5830195e-16	-1.5276648e-16	-5.5354771e-18	0
    Cs(r):	-1.0742315e-16	-1.1334667e-16	5.9235283e-18	0

    writing force and moment coefficient files.


Time = 4.68
Reading field p

Reading field U

Reading/calculating face flux field phi

Selecting incompressible transport model Newtonian
Selecting turbulence model type laminar
Selecting laminar stress model Stokes
No MRF models present

No finite volume options present
forceCoeffs forces_recon write:
    Coefficient	Total	Pressure	Viscous	Internal
    Cd:	3.2441644	2.5302444	0.71391998	0
    Cd(f):	1.6220822	1.2651222	0.35695999	0
    Cd(r):	1.6220822	1.2651222	0.35695999	0
    Cl:	0.38169385	0.40546556	-0.023771719	0
    Cl(f):	-0.01638651	0.20273278	-0.21911929	0
    Cl(r):	0.39808036	0.20273278	0.19534757	0
    CmPitch:	-0.20723343	6.1596452e-10	-0.20723343	0
    CmRoll:	1.7154553e-16	1.7751916e-16	-5.9736286e-18	0
    CmYaw:	-2.3710711e-17	-1.8563896e-17	-5.1468146e-18	0
    Cs:	-2.9101497e-16	-2.9216828e-16	1.1533168e-18	0
    Cs(f):	-1.6921819e-16	-1.6464804e-16	-4.5701562e-18	0
    Cs(r):	-1.2179677e-16	-1.2752025e-16	5.723473e-18	0

    writing force and moment coefficient files.


Time = 4.69
Reading field p

Reading field U

Reading/calculating face flux field phi

Selecting incompressible transport model Newtonian
Selecting turbulence model type laminar
Selecting laminar stress model Stokes
No MRF models present

No finite volume options present
forceCoeffs forces_recon write:
    Coefficient	Total	Pressure	Viscous	Internal
    Cd:	3.2417294	2.5343822	0.70734719	0
    Cd(f):	1.6208647	1.2671911	0.3536736	0
    Cd(r):	1.6208647	1.2671911	0.3536736	0
    Cl:	0.57320096	0.57173843	0.0014625385	0
    Cl(f):	0.3191815	0.28586921	0.033312291	0
    Cl(r):	0.25401946	0.28586921	-0.031849753	0
    CmPitch:	0.032581022	7.3418292e-10	0.032581022	0
    CmRoll:	1.7837887e-16	1.8413224e-16	-5.7533768e-18	0
    CmYaw:	-2.3309369e-17	-1.8072292e-17	-5.2370766e-18	0
    Cs:	-3.1386914e-16	-3.1580414e-16	1.935001e-18	0
    Cs(f):	-1.8024394e-16	-1.7597436e-16	-4.2695761e-18	0
    Cs(r):	-1.336252e-16	-1.3982978e-16	6.2045771e-18	0

    writing force and moment coefficient files.


Time = 4.7
Reading field p

Reading field U

Reading/calculating face flux field phi

Selecting incompressible transport model Newtonian
Selecting turbulence model type laminar
Selecting laminar stress model Stokes
No MRF models present

No finite volume options present
forceCoeffs forces_recon write:
    Coefficient	Total	Pressure	Viscous	Internal
    Cd:	3.2618592	2.5410055	0.72085367	0
    Cd(f):	1.6309296	1.2705027	0.36042683	0
    Cd(r):	1.6309296	1.2705027	0.36042683	0
    Cl:	0.73923124	0.71251066	0.026720579	0
    Cl(f):	-0.069883924	0.35625533	-0.42613926	0
    Cl(r):	0.80911517	0.35625533	0.45285984	0
    CmPitch:	-0.43949955	8.3889425e-10	-0.43949955	0
    CmRoll:	1.8341678e-16	1.8937616e-16	-5.9593837e-18	0
    CmYaw:	-2.2492573e-17	-1.8111824e-17	-4.3807486e-18	0
    Cs:	-3.3340742e-16	-3.3610772e-16	2.7003028e-18	0
    Cs(f):	-1.8919628e-16	-1.8616568e-16	-3.0305972e-18	0
    Cs(r):	-1.4421114e-16	-1.4994204e-16	5.7309e-18	0

    writing force and moment coefficient files.


Time = 4.71
Reading field p

Reading field U

Reading/calculating face flux field phi

Selecting incompressible transport model Newtonian
Selecting turbulence model type laminar
Selecting laminar stress model Stokes
No MRF models present

No finite volume options present
forceCoeffs forces_recon write:
    Coefficient	Total	Pressure	Viscous	Internal
    Cd:	3.2706191	2.5490195	0.72159955	0
    Cd(f):	1.6353095	1.2745098	0.36079978	0
    Cd(r):	1.6353095	1.2745098	0.36079978	0
    Cl:	0.87379289	0.82296615	0.050826744	0
    Cl(f):	-0.014184833	0.41148308	-0.42566791	0
    Cl(r):	0.88797773	0.41148307	0.47649465	0
    CmPitch:	-0.45108128	9.4129611e-10	-0.45108128	0
    CmRoll:	1.8728924e-16	1.9317468e-16	-5.8854411e-18	0
    CmYaw:	-2.259761e-17	-1.850439e-17	-4.0932196e-18	0
    Cs:	-3.4883763e-16	-3.5225566e-16	3.4180266e-18	0
    Cs(f):	-1.9701643e-16	-1.9463222e-16	-2.3842063e-18	0
    Cs(r):	-1.5182121e-16	-1.5762344e-16	5.8022329e-18	0

    writing force and moment coefficient files.


Time = 4.72
Reading field p

Reading field U

Reading/calculating face flux field phi

Selecting incompressible transport model Newtonian
Selecting turbulence model type laminar
Selecting laminar stress model Stokes
No MRF models present

No finite volume options present
forceCoeffs forces_recon write:
    Coefficient	Total	Pressure	Viscous	Internal
    Cd:	3.2729436	2.5573731	0.71557055	0
    Cd(f):	1.6364718	1.2786865	0.35778528	0
    Cd(r):	1.6364718	1.2786865	0.35778528	0
    Cl:	0.97208615	0.89941736	0.072668787	0
    Cl(f):	0.26681733	0.44970868	-0.18289135	0
    Cl(r):	0.70526882	0.44970868	0.25556014	0
    CmPitch:	-0.21922574	1.0486689e-09	-0.21922575	0
    CmRoll:	1.8984809e-16	1.955113e-16	-5.6632096e-18	0
    CmYaw:	-2.3146684e-17	-1.9051766e-17	-4.0949179e-18	0
    Cs:	-3.5947111e-16	-3.6353393e-16	4.0628253e-18	0
    Cs(f):	-2.0288224e-16	-2.0081873e-16	-2.0635052e-18	0
    Cs(r):	-1.5658887e-16	-1.627152e-16	6.1263305e-18	0

    writing force and moment coefficient files.


Time = 4.73
Reading field p

Reading field U

Reading/calculating face flux field phi

Selecting incompressible transport model Newtonian
Selecting turbulence model type laminar
Selecting laminar stress model Stokes
No MRF models present

No finite volume options present
forceCoeffs forces_recon write:
    Coefficient	Total	Pressure	Viscous	Internal
    Cd:	3.2779914	2.5651999	0.71279151	0
    Cd(f):	1.6389957	1.2825999	0.35639576	0
    Cd(r):	1.6389957	1.2825999	0.35639576	0
    Cl:	1.0309378	0.93970181	0.091235979	0
    Cl(f):	0.40949489	0.46985091	-0.060356018	0
    Cl(r):	0.6214429	0.4698509	0.151592	0
    CmPitch:	-0.10597401	1.1671576e-09	-0.10597401	0
    CmRoll:	1.9094466e-16	1.9645789e-16	-5.5132303e-18	0
    CmYaw:	-2.3459827e-17	-1.9539526e-17	-3.9203011e-18	0
    Cs:	-3.6477762e-16	-3.6940081e-16	4.6231912e-18	0
    Cs(f):	-2.0584864e-16	-2.0423993e-16	-1.6087054e-18	0
    Cs(r):	-1.5892898e-16	-1.6516088e-16	6.2318967e-18	0

    writing force and moment coefficient files.


Time = 4.74
Reading field p

Reading field U

Reading/calculating face flux field phi

Selecting incompressible transport model Newtonian
Selecting turbulence model type laminar
Selecting laminar stress model Stokes
No MRF models present

No finite volume options present
forceCoeffs forces_recon write:
    Coefficient	Total	Pressure	Viscous	Internal
    Cd:	3.2872284	2.5718559	0.71537249	0
    Cd(f):	1.6436142	1.285928	0.35768624	0
    Cd(r):	1.6436142	1.285928	0.35768624	0
    Cl:	1.0491749	0.94351351	0.10566144	0
    Cl(f):	0.33472656	0.47175675	-0.13703019	0
    Cl(r):	0.71444838	0.47175675	0.24269163	0
    CmPitch:	-0.18986091	1.3012926e-09	-0.18986091	0
    CmRoll:	1.907179e-16	1.9620462e-16	-5.4867171e-18	0
    CmYaw:	-2.3217545e-17	-1.9746535e-17	-3.4710094e-18	0
    Cs:	-3.6447214e-16	-3.6957754e-16	5.1054002e-18	0
    Cs(f):	-2.0545361e-16	-2.045353e-16	-9.1830928e-19	0
    Cs(r):	-1.5901852e-16	-1.6504223e-16	6.0237095e-18	0

    writing force and moment coefficient files.


Time = 4.75
Reading field p

Reading field U

Reading/calculating face flux field phi

Selecting incompressible transport model Newtonian
Selecting turbulence model type laminar
Selecting laminar stress model Stokes
No MRF models present

No finite volume options present
forceCoeffs forces_recon write:
    Coefficient	Total	Pressure	Viscous	Internal
    Cd:	3.293251	2.5767971	0.71645399	0
    Cd(f):	1.6466255	1.2883985	0.35822699	0
    Cd(r):	1.6466255	1.2883985	0.35822699	0
    Cl:	1.0275339	0.9122741	0.11525978	0
    Cl(f):	0.28586626	0.45613705	-0.17027079	0
    Cl(r):	0.74166762	0.45613705	0.28553057	0
    CmPitch:	-0.22790068	1.4499394e-09	-0.22790068	0
    CmRoll:	1.89602e-16	1.950444e-16	-5.4423948e-18	0
    CmYaw:	-2.2539617e-17	-1.9473055e-17	-3.066562e-18	0
    Cs:	-3.5857109e-16	-3.640994e-16	5.5283084e-18	0
    Cs(f):	-2.0182516e-16	-2.0152276e-16	-3.0240781e-19	0
    Cs(r):	-1.5674593e-16	-1.6257665e-16	5.8307162e-18	0

    writing force and moment coefficient files.


Time = 4.76
Reading field p

Reading field U

Reading/calculating face flux field phi

Selecting incompressible transport model Newtonian
Selecting turbulence model type laminar
Selecting laminar stress model Stokes
No MRF models present

No finite volume options present
forceCoeffs forces_recon write:
    Coefficient	Total	Pressure	Viscous	Internal
    Cd:	3.3059799	2.5795168	0.72646309	0
    Cd(f):	1.65299	1.2897584	0.36323154	0
    Cd(r):	1.65299	1.2897584	0.36323154	0
    Cl:	0.96835737	0.84875702	0.11960035	0
    Cl(f):	-0.11003029	0.42437851	-0.5344088	0
    Cl(r):	1.0783877	0.42437851	0.65400915	0
    CmPitch:	-0.59420898	1.6014802e-09	-0.59420898	0
[...]
Selecting laminar stress model Stokes
No MRF models present

No finite volume options present
forceCoeffs forces_recon write:
    Coefficient	Total	Pressure	Viscous	Internal
    Cd:	3.28181	2.5838829	0.6979271	0
    Cd(f):	1.640905	1.2919415	0.34896355	0
    Cd(r):	1.640905	1.2919415	0.34896355	0
    Cl:	0.79678105	0.67152725	0.1252538	0
    Cl(f):	0.78435117	0.33576363	0.44858755	0
    Cl(r):	0.012429874	0.33576362	-0.32333375	0
    CmPitch:	0.38596065	2.0143455e-09	0.38596065	0
    CmRoll:	1.8190751e-16	1.8689323e-16	-4.985715e-18	0
    CmYaw:	-1.8022903e-17	-1.5237797e-17	-2.7851065e-18	0
    Cs:	-3.1397296e-16	-3.2113918e-16	7.1662196e-18	0
    Cs(f):	-1.7500938e-16	-1.7580738e-16	7.9800332e-19	0
    Cs(r):	-1.3896357e-16	-1.4533179e-16	6.3682163e-18	0

    writing force and moment coefficient files.


Time = 7.82
Reading field p

Reading field U

Reading/calculating face flux field phi

Selecting incompressible transport model Newtonian
Selecting turbulence model type laminar
Selecting laminar stress model Stokes
No MRF models present

No finite volume options present
forceCoeffs forces_recon write:
    Coefficient	Total	Pressure	Viscous	Internal
    Cd:	3.2843659	2.5834631	0.70090275	0
    Cd(f):	1.6421829	1.2917316	0.35045138	0
    Cd(r):	1.6421829	1.2917316	0.35045138	0
    Cl:	0.6520741	0.53687216	0.11520194	0
    Cl(f):	0.61394021	0.26843608	0.34550413	0
    Cl(r):	0.038133891	0.26843608	-0.23030219	0
    CmPitch:	0.28790316	2.0371312e-09	0.28790316	0
    CmRoll:	1.799556e-16	1.8500723e-16	-5.0516331e-18	0
    CmYaw:	-1.6112157e-17	-1.3787899e-17	-2.3242581e-18	0
    Cs:	-2.9406833e-16	-3.0156345e-16	7.4951256e-18	0
    Cs(f):	-1.6314632e-16	-1.6456962e-16	1.4233047e-18	0
    Cs(r):	-1.3092201e-16	-1.3699383e-16	6.0718209e-18	0

    writing force and moment coefficient files.


Time = 7.83
Reading field p

Reading field U

Reading/calculating face flux field phi

Selecting incompressible transport model Newtonian
Selecting turbulence model type laminar
Selecting laminar stress model Stokes
No MRF models present

No finite volume options present
forceCoeffs forces_recon write:
    Coefficient	Total	Pressure	Viscous	Internal
    Cd:	3.279754	2.5796547	0.70009938	0
    Cd(f):	1.639877	1.2898273	0.35004969	0
    Cd(r):	1.639877	1.2898273	0.35004969	0
    Cl:	0.48584625	0.38525752	0.10058872	0
    Cl(f):	0.56566716	0.19262876	0.37303839	0
    Cl(r):	-0.079820913	0.19262876	-0.27244967	0
    CmPitch:	0.32274404	1.9850022e-09	0.32274403	0
    CmRoll:	1.7801063e-16	1.8307178e-16	-5.0611492e-18	0
    CmYaw:	-1.4093801e-17	-1.1969876e-17	-2.1239255e-18	0
    Cs:	-2.7177567e-16	-2.7946907e-16	7.6933956e-18	0
    Cs(f):	-1.4998164e-16	-1.5170441e-16	1.7227724e-18	0
    Cs(r):	-1.2179403e-16	-1.2776466e-16	5.9706233e-18	0

    writing force and moment coefficient files.


Time = 7.84
Reading field p

Reading field U

Reading/calculating face flux field phi

Selecting incompressible transport model Newtonian
Selecting turbulence model type laminar
Selecting laminar stress model Stokes
No MRF models present

No finite volume options present
forceCoeffs forces_recon write:
    Coefficient	Total	Pressure	Viscous	Internal
    Cd:	3.2646721	2.5726303	0.69204179	0
    Cd(f):	1.6323361	1.2863152	0.34602089	0
    Cd(r):	1.6323361	1.2863152	0.34602089	0
    Cl:	0.30393249	0.22175539	0.082177097	0
    Cl(f):	0.76640911	0.1108777	0.65553142	0
    Cl(r):	-0.46247662	0.11087769	-0.57335432	0
    CmPitch:	0.61444287	1.844997e-09	0.61444287	0
    CmRoll:	1.7614452e-16	1.8108477e-16	-4.9402589e-18	0
    CmYaw:	-1.2252598e-17	-9.8836164e-18	-2.3689814e-18	0
    Cs:	-2.4782465e-16	-2.5557092e-16	7.746268e-18	0
    Cs(f):	-1.3616492e-16	-1.3766908e-16	1.5041526e-18	0
    Cs(r):	-1.1165973e-16	-1.1790184e-16	6.2421154e-18	0

    writing force and moment coefficient files.


Time = 7.85
Reading field p

Reading field U

Reading/calculating face flux field phi

Selecting incompressible transport model Newtonian
Selecting turbulence model type laminar
Selecting laminar stress model Stokes
No MRF models present

No finite volume options present
forceCoeffs forces_recon write:
    Coefficient	Total	Pressure	Viscous	Internal
    Cd:	3.2579632	2.5630079	0.69495528	0
    Cd(f):	1.6289816	1.2815039	0.34747764	0
    Cd(r):	1.6289816	1.2815039	0.34747764	0
    Cl:	0.11242359	0.051529267	0.060894324	0
    Cl(f):	0.56734176	0.025764635	0.54157712	0
    Cl(r):	-0.45491817	0.025764632	-0.4806828	0
    CmPitch:	0.51112996	1.610004e-09	0.51112996	0
    CmRoll:	1.7388324e-16	1.789637e-16	-5.0804617e-18	0
    CmYaw:	-9.9458372e-18	-7.7122649e-18	-2.2335723e-18	0
    Cs:	-2.2302775e-16	-2.3066678e-16	7.6390212e-18	0
    Cs(f):	-1.2145971e-16	-1.2304565e-16	1.5859383e-18	0
    Cs(r):	-1.0156804e-16	-1.0762112e-16	6.0530829e-18	0

    writing force and moment coefficient files.


Time = 7.86
Reading field p

Reading field U

Reading/calculating face flux field phi

Selecting incompressible transport model Newtonian
Selecting turbulence model type laminar
Selecting laminar stress model Stokes
No MRF models present

No finite volume options present
forceCoeffs forces_recon write:
    Coefficient	Total	Pressure	Viscous	Internal
    Cd:	3.249812	2.5518008	0.69801119	0
    Cd(f):	1.624906	1.2759004	0.3490056	0
    Cd(r):	1.624906	1.2759004	0.3490056	0
    Cl:	-0.08258215	-0.12033361	0.037751457	0
    Cl(f):	0.35932776	-0.060166802	0.41949457	0
    Cl(r):	-0.44190991	-0.060166804	-0.38174311	0
    CmPitch:	0.40061884	1.2812236e-09	0.40061884	0
    CmRoll:	1.7132024e-16	1.7656628e-16	-5.2460441e-18	0
    CmYaw:	-7.9326645e-18	-5.7004509e-18	-2.2322136e-18	0
    Cs:	-1.9824362e-16	-2.0560268e-16	7.3590656e-18	0
    Cs(f):	-1.0705447e-16	-1.0850179e-16	1.4473192e-18	0
    Cs(r):	-9.1189143e-17	-9.710089e-17	5.9117464e-18	0

    writing force and moment coefficient files.


Time = 7.87
Reading field p

Reading field U

Reading/calculating face flux field phi

Selecting incompressible transport model Newtonian
Selecting turbulence model type laminar
Selecting laminar stress model Stokes
No MRF models present

No finite volume options present
forceCoeffs forces_recon write:
    Coefficient	Total	Pressure	Viscous	Internal
    Cd:	3.229763	2.5402765	0.68948648	0
    Cd(f):	1.6148815	1.2701382	0.34474324	0
    Cd(r):	1.6148815	1.2701382	0.34474324	0
    Cl:	-0.27507103	-0.28885489	0.013783863	0
    Cl(f):	0.56540308	-0.14442744	0.70983052	0
    Cl(r):	-0.84047411	-0.14442745	-0.69604666	0
    CmPitch:	0.70293859	8.690657e-10	0.70293859	0
    CmRoll:	1.6853934e-16	1.7371968e-16	-5.1803418e-18	0
    CmYaw:	-7.034923e-18	-4.1231332e-18	-2.9117898e-18	0
    Cs:	-1.7434526e-16	-1.8124376e-16	6.8984987e-18	0
    Cs(f):	-9.4207553e-17	-9.4745013e-17	5.3745956e-19	0
    Cs(r):	-8.0137707e-17	-8.6498746e-17	6.3610391e-18	0

    writing force and moment coefficient files.


Time = 7.88
Reading field p

Reading field U

Reading/calculating face flux field phi

Selecting incompressible transport model Newtonian
Selecting turbulence model type laminar
Selecting laminar stress model Stokes
No MRF models present

No finite volume options present
forceCoeffs forces_recon write:
    Coefficient	Total	Pressure	Viscous	Internal
    Cd:	3.218774	2.5298326	0.68894147	0
    Cd(f):	1.609387	1.2649163	0.34447073	0
    Cd(r):	1.609387	1.2649163	0.34447073	0
    Cl:	-0.4592451	-0.44922691	-0.010018196	0
    Cl(f):	0.48984006	-0.22461345	0.71445351	0
    Cl(r):	-0.94908517	-0.22461345	-0.72447171	0
    CmPitch:	0.71946261	3.9380281e-10	0.71946261	0
    CmRoll:	1.6496352e-16	1.7026198e-16	-5.2984556e-18	0
    CmYaw:	-6.601129e-18	-3.2437383e-18	-3.3573907e-18	0
    Cs:	-1.5217116e-16	-1.5842908e-16	6.2579128e-18	0
    Cs(f):	-8.2686711e-17	-8.2458276e-17	-2.2843425e-19	0
    Cs(r):	-6.9484453e-17	-7.59708e-17	6.4863471e-18	0

    writing force and moment coefficient files.


Time = 7.89
Reading field p

Reading field U

Reading/calculating face flux field phi

Selecting incompressible transport model Newtonian
Selecting turbulence model type laminar
Selecting laminar stress model Stokes
No MRF models present

No finite volume options present
forceCoeffs forces_recon write:
    Coefficient	Total	Pressure	Viscous	Internal
    Cd:	3.2189203	2.5217869	0.69713338	0
    Cd(f):	1.6094602	1.2608935	0.34856669	0
    Cd(r):	1.6094602	1.2608935	0.34856669	0
    Cl:	-0.6295848	-0.59681131	-0.032773495	0
    Cl(f):	0.10931038	-0.29840565	0.40771603	0
    Cl(r):	-0.73889518	-0.29840565	-0.44048953	0
    CmPitch:	0.42410278	-1.155295e-10	0.42410278	0
    CmRoll:	1.6047852e-16	1.6608824e-16	-5.6097139e-18	0
    CmYaw:	-6.7850035e-18	-3.2709673e-18	-3.5140362e-18	0
    Cs:	-1.3248994e-16	-1.3794026e-16	5.4503175e-18	0
    Cs(f):	-7.3029974e-17	-7.2241096e-17	-7.8887744e-19	0
    Cs(r):	-5.9459967e-17	-6.5699162e-17	6.2391949e-18	0

    writing force and moment coefficient files.


Time = 7.9
Reading field p

Reading field U

Reading/calculating face flux field phi

Selecting incompressible transport model Newtonian
Selecting turbulence model type laminar
Selecting laminar stress model Stokes
No MRF models present

No finite volume options present
forceCoeffs forces_recon write:
    Coefficient	Total	Pressure	Viscous	Internal
    Cd:	3.2149782	2.517201	0.69777717	0
    Cd(f):	1.6074891	1.2586005	0.34888859	0
    Cd(r):	1.6074891	1.2586005	0.34888859	0
    Cl:	-0.78097523	-0.72722952	-0.053745704	0
    Cl(f):	0.0097971295	-0.36361476	0.37341189	0
    Cl(r):	-0.79077236	-0.36361476	-0.4271576	0
    CmPitch:	0.40028474	-6.2389473e-10	0.40028474	0
    CmRoll:	1.5542878e-16	1.6118472e-16	-5.7559382e-18	0
    CmYaw:	-8.4305637e-18	-4.3244949e-18	-4.1060688e-18	0
    Cs:	-1.1595943e-16	-1.2046202e-16	4.5025871e-18	0
    Cs(f):	-6.6410279e-17	-6.4555503e-17	-1.8547753e-18	0
    Cs(r):	-4.9549151e-17	-5.5906514e-17	6.3573623e-18	0

    writing force and moment coefficient files.


Time = 7.91
Reading field p

Reading field U

Reading/calculating face flux field phi

Selecting incompressible transport model Newtonian
Selecting turbulence model type laminar
Selecting laminar stress model Stokes
No MRF models present

No finite volume options present
forceCoeffs forces_recon write:
    Coefficient	Total	Pressure	Viscous	Internal
    Cd:	3.1878406	2.5038467	0.68399393	0
    Cd(f):	1.5939203	1.2519234	0.34199696	0
    Cd(r):	1.5939203	1.2519234	0.34199696	0
    Cl:	-0.98308978	-0.92013178	-0.062957995	0
    Cl(f):	-0.0031100823	-0.46006589	0.45695581	0
    Cl(r):	-0.9799797	-0.46006589	-0.51991381	0
    CmPitch:	0.48843481	-5.0421681e-10	0.48843481	0
    CmRoll:	1.3181413e-16	1.3751953e-16	-5.7053975e-18	0
    CmYaw:	-1.1775731e-17	-7.3758391e-18	-4.3998916e-18	0
    Cs:	-7.270682e-17	-7.6405072e-17	3.6982527e-18	0
    Cs(f):	-4.8129141e-17	-4.5578375e-17	-2.5507652e-18	0
    Cs(r):	-2.4577679e-17	-3.0826697e-17	6.2490179e-18	0

    writing force and moment coefficient files.


Time = 7.92
Reading field p

Reading field U

Reading/calculating face flux field phi

Selecting incompressible transport model Newtonian
Selecting turbulence model type laminar
Selecting laminar stress model Stokes
No MRF models present

No finite volume options present
forceCoeffs forces_recon write:
    Coefficient	Total	Pressure	Viscous	Internal
    Cd:	3.1884636	2.5027384	0.68572523	0
    Cd(f):	1.5942318	1.2513692	0.34286261	0
    Cd(r):	1.5942318	1.2513692	0.34286261	0
    Cl:	-1.0793347	-0.99341659	-0.085918129	0
    Cl(f):	-0.14787959	-0.4967083	0.34882871	0
    Cl(r):	-0.93145513	-0.4967083	-0.43474684	0
    CmPitch:	0.39178777	-6.7202365e-10	0.39178777	0
    CmRoll:	1.2876587e-16	1.3461723e-16	-5.8513593e-18	0
    CmYaw:	-1.2392205e-17	-7.8556538e-18	-4.5365507e-18	0
    Cs:	-6.3069711e-17	-6.5993234e-17	2.9235232e-18	0
    Cs(f):	-4.392706e-17	-4.0852271e-17	-3.0747891e-18	0
    Cs(r):	-1.9142651e-17	-2.5140963e-17	5.9983123e-18	0

    writing force and moment coefficient files.


Time = 7.93
Reading field p

Reading field U

Reading/calculating face flux field phi

Selecting incompressible transport model Newtonian
Selecting turbulence model type laminar
Selecting laminar stress model Stokes
No MRF models present

No finite volume options present
forceCoeffs forces_recon write:
    Coefficient	Total	Pressure	Viscous	Internal
    Cd:	3.1991814	2.5043202	0.69486112	0
    Cd(f):	1.5995907	1.2521601	0.34743056	0
    Cd(r):	1.5995907	1.2521601	0.34743056	0
    Cl:	-1.1348985	-1.028597	-0.10630155	0
    Cl(f):	-0.52648071	-0.51429849	-0.012182222	0
    Cl(r):	-0.60841781	-0.51429849	-0.094119324	0
    CmPitch:	0.04096855	-7.9996794e-10	0.040968551	0
    CmRoll:	1.2656411e-16	1.3270789e-16	-6.1437754e-18	0
    CmYaw:	-1.3344955e-17	-8.9979221e-18	-4.3470326e-18	0
    Cs:	-5.9979419e-17	-6.2125329e-17	2.1459097e-18	0
    Cs(f):	-4.3334664e-17	-4.0060587e-17	-3.2740777e-18	0
    Cs(r):	-1.6644755e-17	-2.2064742e-17	5.4199874e-18	0

    writing force and moment coefficient files.


Time = 7.94
Reading field p

Reading field U

Reading/calculating face flux field phi

Selecting incompressible transport model Newtonian
Selecting turbulence model type laminar
Selecting laminar stress model Stokes
No MRF models present

No finite volume options present
forceCoeffs forces_recon write:
    Coefficient	Total	Pressure	Viscous	Internal
    Cd:	3.1915246	2.5084032	0.68312146	0
    Cd(f):	1.5957623	1.2542016	0.34156073	0
    Cd(r):	1.5957623	1.2542016	0.34156073	0
    Cl:	-1.1466807	-1.0232961	-0.12338463	0
    Cl(f):	-0.12339297	-0.51164805	0.38825508	0
    Cl(r):	-1.0232878	-0.51164805	-0.51163971	0
    CmPitch:	0.44994739	-8.8210619e-10	0.44994739	0
    CmRoll:	1.2601014e-16	1.3197987e-16	-5.9697258e-18	0
    CmYaw:	-1.5902625e-17	-1.0767457e-17	-5.1351679e-18	0
    Cs:	-6.3870042e-17	-6.5265411e-17	1.3953697e-18	0
    Cs(f):	-4.7837645e-17	-4.3400162e-17	-4.437483e-18	0
    Cs(r):	-1.6032396e-17	-2.1865249e-17	5.8328527e-18	0

    writing force and moment coefficient files.


Time = 7.95
Reading field p

Reading field U

Reading/calculating face flux field phi

Selecting incompressible transport model Newtonian
Selecting turbulence model type laminar
Selecting laminar stress model Stokes
No MRF models present

No finite volume options present
forceCoeffs forces_recon write:
    Coefficient	Total	Pressure	Viscous	Internal
    Cd:	3.1944345	2.5144642	0.67997027	0
    Cd(f):	1.5972172	1.2572321	0.33998513	0
    Cd(r):	1.5972172	1.2572321	0.33998513	0
    Cl:	-1.1132542	-0.97670688	-0.13654736	0
    Cl(f):	0.0090217871	-0.48835344	0.49737523	0
    Cl(r):	-1.122276	-0.48835344	-0.63392259	0
    CmPitch:	0.56564891	-9.1419477e-10	0.56564891	0
    CmRoll:	1.2663365e-16	1.3259374e-16	-5.9600998e-18	0
    CmYaw:	-1.8575983e-17	-1.3051468e-17	-5.5245143e-18	0
    Cs:	-7.4824605e-17	-7.5526008e-17	7.0140294e-19	0
    Cs(f):	-5.5988285e-17	-5.0814472e-17	-5.1738129e-18	0
    Cs(r):	-1.883632e-17	-2.4711536e-17	5.8752158e-18	0

    writing force and moment coefficient files.


Time = 7.96
Reading field p

Reading field U

Reading/calculating face flux field phi

Selecting incompressible transport model Newtonian
Selecting turbulence model type laminar
Selecting laminar stress model Stokes
No MRF models present

No finite volume options present
forceCoeffs forces_recon write:
    Coefficient	Total	Pressure	Viscous	Internal
    Cd:	3.2075836	2.5217614	0.68582219	0
    Cd(f):	1.6037918	1.2608807	0.3429111	0
    Cd(r):	1.6037918	1.2608807	0.3429111	0
    Cl:	-1.0345319	-0.88923998	-0.14529192	0
    Cl(f):	-0.14479805	-0.44461999	0.29982194	0
    Cl(r):	-0.88973385	-0.44461999	-0.44511386	0
    CmPitch:	0.3724679	-8.9336643e-10	0.3724679	0
    CmRoll:	1.2856996e-16	1.3469119e-16	-6.1212371e-18	0
    CmYaw:	-2.1151349e-17	-1.5668054e-17	-5.4832956e-18	0
    Cs:	-9.2628357e-17	-9.2719947e-17	9.1589114e-20	0
    Cs(f):	-6.7465528e-17	-6.2028027e-17	-5.437501e-18	0
    Cs(r):	-2.5162829e-17	-3.069192e-17	5.5290901e-18	0

    writing force and moment coefficient files.


Time = 7.97
Reading field p

Reading field U

Reading/calculating face flux field phi

Selecting incompressible transport model Newtonian
Selecting turbulence model type laminar
Selecting laminar stress model Stokes
No MRF models present

No finite volume options present
forceCoeffs forces_recon write:
    Coefficient	Total	Pressure	Viscous	Internal
    Cd:	3.2214312	2.5294388	0.69199239	0
    Cd(f):	1.6107156	1.2647194	0.3459962	0
    Cd(r):	1.6107156	1.2647194	0.3459962	0
    Cl:	-0.91187309	-0.76260862	-0.14926448	0
    Cl(f):	-0.27702554	-0.38130431	0.10427877	0
    Cl(r):	-0.63484755	-0.38130431	-0.25354325	0
    CmPitch:	0.17891101	-8.1858938e-10	0.17891101	0
    CmRoll:	1.3210967e-16	1.3837429e-16	-6.2646174e-18	0
    CmYaw:	-2.3786321e-17	-1.8385959e-17	-5.4003619e-18	0
    Cs:	-1.1676847e-16	-1.163587e-16	-4.0976936e-19	0
    Cs(f):	-8.2170556e-17	-7.656531e-17	-5.6052466e-18	0
    Cs(r):	-3.4597914e-17	-3.9793391e-17	5.1954772e-18	0

    writing force and moment coefficient files.


Time = 7.98
Reading field p

Reading field U

Reading/calculating face flux field phi

Selecting incompressible transport model Newtonian
Selecting turbulence model type laminar
Selecting laminar stress model Stokes
No MRF models present

No finite volume options present
forceCoeffs forces_recon write:
    Coefficient	Total	Pressure	Viscous	Internal
    Cd:	3.2301531	2.5366141	0.69353897	0
    Cd(f):	1.6150765	1.2683071	0.34676949	0
    Cd(r):	1.6150765	1.2683071	0.34676949	0
    Cl:	-0.74806742	-0.5997994	-0.14826801	0
    Cl(f):	-0.21546355	-0.2998997	0.084436155	0
    Cl(r):	-0.53260387	-0.2998997	-0.23270417	0
    CmPitch:	0.15857016	-6.90948e-10	0.15857016	0
    CmRoll:	1.3740608e-16	1.4368938e-16	-6.2832981e-18	0
    CmYaw:	-2.6441068e-17	-2.0950029e-17	-5.4910381e-18	0
    Cs:	-1.4646585e-16	-1.4568295e-16	-7.8289862e-19	0
    Cs(f):	-9.9673991e-17	-9.3791504e-17	-5.8824874e-18	0
    Cs(r):	-4.6791856e-17	-5.1891445e-17	5.0995888e-18	0

    writing force and moment coefficient files.


Time = 7.99
Reading field p

Reading field U

Reading/calculating face flux field phi

Selecting incompressible transport model Newtonian
Selecting turbulence model type laminar
Selecting laminar stress model Stokes
No MRF models present

No finite volume options present
forceCoeffs forces_recon write:
    Coefficient	Total	Pressure	Viscous	Internal
    Cd:	3.2324316	2.5424725	0.68995907	0
    Cd(f):	1.6162158	1.2712363	0.34497953	0
    Cd(r):	1.6162158	1.2712363	0.34497953	0
    Cl:	-0.54741586	-0.40513798	-0.14227788	0
    Cl(f):	0.052137122	-0.20256899	0.25470611	0
    Cl(r):	-0.59955298	-0.20256899	-0.39698399	0
    CmPitch:	0.32584505	-5.1395862e-10	0.32584505	0
    CmRoll:	1.4444002e-16	1.5060691e-16	-6.1668897e-18	0
    CmYaw:	-2.8875238e-17	-2.3108543e-17	-5.7666951e-18	0
    Cs:	-1.8070056e-16	-1.7968645e-16	-1.0141086e-18	0
    Cs(f):	-1.1922552e-16	-1.1295177e-16	-6.2737494e-18	0
    Cs(r):	-6.1475041e-17	-6.6734682e-17	5.2596408e-18	0

    writing force and moment coefficient files.


Time = 8
Reading field p

Reading field U

Reading/calculating face flux field phi

Selecting incompressible transport model Newtonian
Selecting turbulence model type laminar
Selecting laminar stress model Stokes
No MRF models present

No finite volume options present
forceCoeffs forces_recon write:
    Coefficient	Total	Pressure	Viscous	Internal
    Cd:	3.2324026	2.5463352	0.68606733	0
    Cd(f):	1.6162013	1.2731676	0.34303366	0
    Cd(r):	1.6162013	1.2731676	0.34303366	0
    Cl:	-0.31542196	-0.18398337	-0.1314386	0
    Cl(f):	0.34717208	-0.091991684	0.43916377	0
    Cl(r):	-0.66259405	-0.091991684	-0.57060236	0
    CmPitch:	0.50488307	-2.9319372e-10	0.50488307	0
    CmRoll:	1.5300368e-16	1.5902404e-16	-6.0203634e-18	0
    CmYaw:	-3.0633237e-17	-2.4638169e-17	-5.9950685e-18	0
    Cs:	-2.1829964e-16	-2.1720348e-16	-1.0961604e-18	0
    Cs(f):	-1.3978306e-16	-1.3323991e-16	-6.5431487e-18	0
    Cs(r):	-7.8516585e-17	-8.3963573e-17	5.4469883e-18	0

    writing force and moment coefficient files.


End

Finalising parallel run
